*SPEF "IEEE 1481-1999"
*DESIGN "29th_MAY_ROUTE_DONE"
*DATE "Mon May 30 11:17:47 2022"
*VENDOR "Synopsys Inc."
*PROGRAM "StarRC"
*VERSION "P-2019.03-SP4"
*DESIGN_FLOW "PIN_CAP NONE" "NAME_SCOPE LOCAL"
*DIVIDER /
*DELIMITER :
*BUS_DELIMITER []
*T_UNIT 1.0 NS
*C_UNIT 1.0 FF
*R_UNIT 1.0 OHM
*L_UNIT 1.0 HENRY

// COMMENTS

// OPERATING_TEMPERATURE 25
// GLOBAL_TEMPERATURE 25
// TCAD_GRD_FILE ../saed14nm_1p9m_Cmin.nxtgrd
//   TCAD_TIME_STAMP Mon Oct 16 09:49:04 2017
//   TCADGRD_VERSION 81
// galaxy_comments_begin
//   local_nodeid
// galaxy_comments_end

*NAME_MAP
*862 Run
*863 Resetn
*864 Clock
*865 DIN[8]
*866 DIN[7]
*867 DIN[6]
*868 DIN[5]
*869 DIN[4]
*870 DIN[3]
*871 DIN[2]
*872 DIN[1]
*873 DIN[0]
*874 Bus[8]
*875 Bus[7]
*876 Bus[6]
*877 Bus[5]
*878 Bus[4]
*879 Bus[3]
*880 Bus[2]
*881 Bus[1]
*882 Bus[0]
*883 Done
*884 G1_Controller/Add_sub_reg
*885 G1_Controller/DINout_reg
*886 G1_Controller/Done_reg
*887 G1_Controller/Gout_reg
*888 G1_Controller/HFSINV_905_0
*889 G1_Controller/IR_reg_0_
*890 G1_Controller/IR_reg_1_
*891 G1_Controller/IR_reg_2_
*892 G1_Controller/IR_reg_3_
*893 G1_Controller/IR_reg_4_
*894 G1_Controller/IR_reg_5_
*895 G1_Controller/IR_reg_6_
*896 G1_Controller/IR_reg_7_
*897 G1_Controller/IR_reg_8_
*898 G1_Controller/IRin_reg
*899 G1_Controller/LdA_reg
*900 G1_Controller/LdG_reg
*901 G1_Controller/LdR0_reg
*902 G1_Controller/LdR1_reg
*903 G1_Controller/LdR2_reg
*904 G1_Controller/LdR3_reg
*905 G1_Controller/LdR4_reg
*906 G1_Controller/LdR5_reg
*907 G1_Controller/LdR6_reg
*908 G1_Controller/LdR7_reg
*909 G1_Controller/PS_reg_0_
*910 G1_Controller/PS_reg_1_
*911 G1_Controller/PS_reg_2_
*912 G1_Controller/PS_reg_3_
*913 G1_Controller/R0out_reg
*914 G1_Controller/R1out_reg
*915 G1_Controller/R2out_reg
*916 G1_Controller/R3out_reg
*917 G1_Controller/R4out_reg
*918 G1_Controller/R5out_reg
*919 G1_Controller/R6out_reg
*920 G1_Controller/R7out_reg
*921 G1_Controller/U10
*922 G1_Controller/U11
*923 G1_Controller/U12
*924 G1_Controller/U13
*925 G1_Controller/U14
*926 G1_Controller/U15
*927 G1_Controller/U16
*928 G1_Controller/U17
*929 G1_Controller/U18
*930 G1_Controller/U19
*931 G1_Controller/U20
*932 G1_Controller/U22
*933 G1_Controller/U23
*934 G1_Controller/U24
*935 G1_Controller/U25
*936 G1_Controller/U26
*937 G1_Controller/U27
*938 G1_Controller/U28
*939 G1_Controller/U29
*940 G1_Controller/U3
*941 G1_Controller/U30
*942 G1_Controller/U31
*943 G1_Controller/U32
*944 G1_Controller/U33
*945 G1_Controller/U34
*946 G1_Controller/U35
*947 G1_Controller/U36
*948 G1_Controller/U37
*949 G1_Controller/U38
*950 G1_Controller/U39
*951 G1_Controller/U4
*952 G1_Controller/U40
*953 G1_Controller/U41
*954 G1_Controller/U42
*955 G1_Controller/U43
*956 G1_Controller/U44
*957 G1_Controller/U45
*958 G1_Controller/U46
*959 G1_Controller/U47
*960 G1_Controller/U48
*961 G1_Controller/U49
*962 G1_Controller/U5
*963 G1_Controller/U50
*964 G1_Controller/U51
*965 G1_Controller/U52
*966 G1_Controller/U53
*967 G1_Controller/U54
*968 G1_Controller/U55
*969 G1_Controller/U56
*970 G1_Controller/U57
*971 G1_Controller/U58
*972 G1_Controller/U59
*973 G1_Controller/U6
*974 G1_Controller/U60
*975 G1_Controller/U61
*976 G1_Controller/U62
*977 G1_Controller/U7
*978 G1_Controller/U8
*979 G1_Controller/U9
*980 G1_Controller/Z1/U10
*981 G1_Controller/Z1/U11
*982 G1_Controller/Z1/U12
*983 G1_Controller/Z1/U13
*984 G1_Controller/Z1/U14
*985 G1_Controller/Z1/U15
*986 G1_Controller/Z1/U16
*987 G1_Controller/Z1/U17
*988 G1_Controller/Z1/U3
*989 G1_Controller/Z1/U4
*990 G1_Controller/Z1/U5
*991 G1_Controller/Z1/U6
*992 G1_Controller/Z1/U7
*993 G1_Controller/Z1/U8
*994 G1_Controller/Z1/U9
*995 G1_Controller/Z2/U10
*996 G1_Controller/Z2/U11
*997 G1_Controller/Z2/U12
*998 G1_Controller/Z2/U13
*999 G1_Controller/Z2/U14
*1000 G1_Controller/Z2/U15
*1001 G1_Controller/Z2/U16
*1002 G1_Controller/Z2/U17
*1003 G1_Controller/Z2/U3
*1004 G1_Controller/Z2/U4
*1005 G1_Controller/Z2/U5
*1006 G1_Controller/Z2/U6
*1007 G1_Controller/Z2/U7
*1008 G1_Controller/Z2/U8
*1009 G1_Controller/Z2/U9
*1010 G1_Controller/copt_h_inst_5592
*1011 G1_Controller/copt_h_inst_5593
*1012 G1_Controller/copt_h_inst_5594
*1013 G1_Controller/copt_h_inst_5595
*1014 G1_Controller/copt_h_inst_5815
*1015 G1_Controller/copt_h_inst_5816
*1016 G1_Controller/copt_h_inst_5817
*1017 G1_Controller/copt_h_inst_5818
*1018 G1_Controller/copt_h_inst_5819
*1019 G1_Controller/copt_h_inst_5820
*1020 G1_Controller/copt_h_inst_5821
*1021 G1_Controller/copt_h_inst_5837
*1022 G1_Controller/copt_h_inst_5875
*1023 G1_Controller/copt_h_inst_5876
*1024 G1_Controller/copt_h_inst_5877
*1025 G1_Controller/copt_h_inst_5878
*1026 G1_Controller/copt_h_inst_5886
*1027 G1_Controller/copt_h_inst_5887
*1028 G1_Controller/copt_h_inst_5888
*1029 G1_Controller/opcode_reg_0_
*1030 G1_Controller/opcode_reg_1_
*1031 G1_Controller/opcode_reg_2_
*1032 G1_Controller/ropt_h_inst_5908
*1033 G2_Datapath/A5/U10
*1034 G2_Datapath/A5/U11
*1035 G2_Datapath/A5/U12
*1036 G2_Datapath/A5/U13
*1037 G2_Datapath/A5/U3
*1038 G2_Datapath/A5/U4
*1039 G2_Datapath/A5/U5
*1040 G2_Datapath/A5/U6
*1041 G2_Datapath/A5/U7
*1042 G2_Datapath/A5/U8
*1043 G2_Datapath/A5/copt_h_inst_5791
*1044 G2_Datapath/A5/copt_h_inst_5792
*1045 G2_Datapath/A5/copt_h_inst_5793
*1046 G2_Datapath/A5/copt_h_inst_5794
*1047 G2_Datapath/A5/copt_h_inst_5795
*1048 G2_Datapath/A5/copt_h_inst_5796
*1049 G2_Datapath/A5/copt_h_inst_5797
*1050 G2_Datapath/A5/copt_h_inst_5798
*1051 G2_Datapath/A5/copt_h_inst_5799
*1052 G2_Datapath/A5/copt_h_inst_5800
*1053 G2_Datapath/A5/copt_h_inst_5801
*1054 G2_Datapath/A5/copt_h_inst_5802
*1055 G2_Datapath/A5/copt_h_inst_5803
*1056 G2_Datapath/A5/copt_h_inst_5804
*1057 G2_Datapath/A5/copt_h_inst_5805
*1058 G2_Datapath/A5/copt_h_inst_5806
*1059 G2_Datapath/A5/copt_h_inst_5807
*1060 G2_Datapath/A5/copt_h_inst_5808
*1061 G2_Datapath/A5/copt_h_inst_5809
*1062 G2_Datapath/A5/copt_h_inst_5810
*1063 G2_Datapath/A5/copt_h_inst_5811
*1064 G2_Datapath/A5/copt_h_inst_5812
*1065 G2_Datapath/A5/copt_h_inst_5813
*1066 G2_Datapath/A5/copt_h_inst_5814
*1067 G2_Datapath/A5/copt_h_inst_5870
*1068 G2_Datapath/A5/copt_h_inst_5889
*1069 G2_Datapath/A5/copt_h_inst_5890
*1070 G2_Datapath/A5/dout_reg_0_
*1071 G2_Datapath/A5/dout_reg_1_
*1072 G2_Datapath/A5/dout_reg_2_
*1073 G2_Datapath/A5/dout_reg_3_
*1074 G2_Datapath/A5/dout_reg_4_
*1075 G2_Datapath/A5/dout_reg_5_
*1076 G2_Datapath/A5/dout_reg_6_
*1077 G2_Datapath/A5/dout_reg_7_
*1078 G2_Datapath/A5/dout_reg_8_
*1079 G2_Datapath/HFSBUF_113_8
*1080 G2_Datapath/HFSBUF_122_6
*1081 G2_Datapath/HFSBUF_206_3
*1082 G2_Datapath/HFSBUF_235_4
*1083 G2_Datapath/HFSBUF_277_5
*1084 G2_Datapath/HFSBUF_335_1
*1085 G2_Datapath/HFSBUF_753_2
*1086 G2_Datapath/Reg0/U10
*1087 G2_Datapath/Reg0/U11
*1088 G2_Datapath/Reg0/U12
*1089 G2_Datapath/Reg0/U3
*1090 G2_Datapath/Reg0/U4
*1091 G2_Datapath/Reg0/U5
*1092 G2_Datapath/Reg0/U6
*1093 G2_Datapath/Reg0/U7
*1094 G2_Datapath/Reg0/U8
*1095 G2_Datapath/Reg0/U9
*1096 G2_Datapath/Reg0/copt_h_inst_5641
*1097 G2_Datapath/Reg0/copt_h_inst_5642
*1098 G2_Datapath/Reg0/copt_h_inst_5643
*1099 G2_Datapath/Reg0/copt_h_inst_5656
*1100 G2_Datapath/Reg0/copt_h_inst_5657
*1101 G2_Datapath/Reg0/copt_h_inst_5658
*1102 G2_Datapath/Reg0/copt_h_inst_5659
*1103 G2_Datapath/Reg0/copt_h_inst_5660
*1104 G2_Datapath/Reg0/copt_h_inst_5661
*1105 G2_Datapath/Reg0/copt_h_inst_5683
*1106 G2_Datapath/Reg0/copt_h_inst_5684
*1107 G2_Datapath/Reg0/copt_h_inst_5685
*1108 G2_Datapath/Reg0/copt_h_inst_5716
*1109 G2_Datapath/Reg0/copt_h_inst_5717
*1110 G2_Datapath/Reg0/copt_h_inst_5718
*1111 G2_Datapath/Reg0/copt_h_inst_5734
*1112 G2_Datapath/Reg0/copt_h_inst_5735
*1113 G2_Datapath/Reg0/copt_h_inst_5736
*1114 G2_Datapath/Reg0/copt_h_inst_5740
*1115 G2_Datapath/Reg0/copt_h_inst_5741
*1116 G2_Datapath/Reg0/copt_h_inst_5742
*1117 G2_Datapath/Reg0/copt_h_inst_5852
*1118 G2_Datapath/Reg0/copt_h_inst_5853
*1119 G2_Datapath/Reg0/copt_h_inst_5854
*1120 G2_Datapath/Reg0/copt_h_inst_5858
*1121 G2_Datapath/Reg0/copt_h_inst_5859
*1122 G2_Datapath/Reg0/copt_h_inst_5860
*1123 G2_Datapath/Reg0/dout_reg_0_
*1124 G2_Datapath/Reg0/dout_reg_1_
*1125 G2_Datapath/Reg0/dout_reg_2_
*1126 G2_Datapath/Reg0/dout_reg_3_
*1127 G2_Datapath/Reg0/dout_reg_4_
*1128 G2_Datapath/Reg0/dout_reg_5_
*1129 G2_Datapath/Reg0/dout_reg_6_
*1130 G2_Datapath/Reg0/dout_reg_7_
*1131 G2_Datapath/Reg0/dout_reg_8_
*1132 G2_Datapath/Reg1/U10
*1133 G2_Datapath/Reg1/U11
*1134 G2_Datapath/Reg1/U12
*1135 G2_Datapath/Reg1/U3
*1136 G2_Datapath/Reg1/U4
*1137 G2_Datapath/Reg1/U5
*1138 G2_Datapath/Reg1/U6
*1139 G2_Datapath/Reg1/U7
*1140 G2_Datapath/Reg1/U8
*1141 G2_Datapath/Reg1/U9
*1142 G2_Datapath/Reg1/copt_h_inst_5558
*1143 G2_Datapath/Reg1/copt_h_inst_5559
*1144 G2_Datapath/Reg1/copt_h_inst_5560
*1145 G2_Datapath/Reg1/copt_h_inst_5561
*1146 G2_Datapath/Reg1/copt_h_inst_5588
*1147 G2_Datapath/Reg1/copt_h_inst_5589
*1148 G2_Datapath/Reg1/copt_h_inst_5590
*1149 G2_Datapath/Reg1/copt_h_inst_5591
*1150 G2_Datapath/Reg1/copt_h_inst_5600
*1151 G2_Datapath/Reg1/copt_h_inst_5601
*1152 G2_Datapath/Reg1/copt_h_inst_5602
*1153 G2_Datapath/Reg1/copt_h_inst_5603
*1154 G2_Datapath/Reg1/copt_h_inst_5611
*1155 G2_Datapath/Reg1/copt_h_inst_5612
*1156 G2_Datapath/Reg1/copt_h_inst_5613
*1157 G2_Datapath/Reg1/copt_h_inst_5614
*1158 G2_Datapath/Reg1/copt_h_inst_5647
*1159 G2_Datapath/Reg1/copt_h_inst_5648
*1160 G2_Datapath/Reg1/copt_h_inst_5649
*1161 G2_Datapath/Reg1/copt_h_inst_5686
*1162 G2_Datapath/Reg1/copt_h_inst_5687
*1163 G2_Datapath/Reg1/copt_h_inst_5688
*1164 G2_Datapath/Reg1/copt_h_inst_5698
*1165 G2_Datapath/Reg1/copt_h_inst_5699
*1166 G2_Datapath/Reg1/copt_h_inst_5700
*1167 G2_Datapath/Reg1/copt_h_inst_5713
*1168 G2_Datapath/Reg1/copt_h_inst_5714
*1169 G2_Datapath/Reg1/copt_h_inst_5715
*1170 G2_Datapath/Reg1/copt_h_inst_5848
*1171 G2_Datapath/Reg1/copt_h_inst_5849
*1172 G2_Datapath/Reg1/copt_h_inst_5850
*1173 G2_Datapath/Reg1/dout_reg_0_
*1174 G2_Datapath/Reg1/dout_reg_1_
*1175 G2_Datapath/Reg1/dout_reg_2_
*1176 G2_Datapath/Reg1/dout_reg_3_
*1177 G2_Datapath/Reg1/dout_reg_4_
*1178 G2_Datapath/Reg1/dout_reg_5_
*1179 G2_Datapath/Reg1/dout_reg_6_
*1180 G2_Datapath/Reg1/dout_reg_7_
*1181 G2_Datapath/Reg1/dout_reg_8_
*1182 G2_Datapath/Reg2/U10
*1183 G2_Datapath/Reg2/U11
*1184 G2_Datapath/Reg2/U12
*1185 G2_Datapath/Reg2/U3
*1186 G2_Datapath/Reg2/U4
*1187 G2_Datapath/Reg2/U5
*1188 G2_Datapath/Reg2/U6
*1189 G2_Datapath/Reg2/U7
*1190 G2_Datapath/Reg2/U8
*1191 G2_Datapath/Reg2/U9
*1192 G2_Datapath/Reg2/copt_h_inst_5569
*1193 G2_Datapath/Reg2/copt_h_inst_5570
*1194 G2_Datapath/Reg2/copt_h_inst_5571
*1195 G2_Datapath/Reg2/copt_h_inst_5572
*1196 G2_Datapath/Reg2/copt_h_inst_5584
*1197 G2_Datapath/Reg2/copt_h_inst_5585
*1198 G2_Datapath/Reg2/copt_h_inst_5586
*1199 G2_Datapath/Reg2/copt_h_inst_5587
*1200 G2_Datapath/Reg2/copt_h_inst_5650
*1201 G2_Datapath/Reg2/copt_h_inst_5651
*1202 G2_Datapath/Reg2/copt_h_inst_5652
*1203 G2_Datapath/Reg2/copt_h_inst_5704
*1204 G2_Datapath/Reg2/copt_h_inst_5705
*1205 G2_Datapath/Reg2/copt_h_inst_5706
*1206 G2_Datapath/Reg2/copt_h_inst_5764
*1207 G2_Datapath/Reg2/copt_h_inst_5765
*1208 G2_Datapath/Reg2/copt_h_inst_5766
*1209 G2_Datapath/Reg2/copt_h_inst_5841
*1210 G2_Datapath/Reg2/copt_h_inst_5845
*1211 G2_Datapath/Reg2/copt_h_inst_5846
*1212 G2_Datapath/Reg2/copt_h_inst_5847
*1213 G2_Datapath/Reg2/copt_h_inst_5861
*1214 G2_Datapath/Reg2/copt_h_inst_5862
*1215 G2_Datapath/Reg2/copt_h_inst_5863
*1216 G2_Datapath/Reg2/copt_h_inst_5885
*1217 G2_Datapath/Reg2/dout_reg_0_
*1218 G2_Datapath/Reg2/dout_reg_1_
*1219 G2_Datapath/Reg2/dout_reg_2_
*1220 G2_Datapath/Reg2/dout_reg_3_
*1221 G2_Datapath/Reg2/dout_reg_4_
*1222 G2_Datapath/Reg2/dout_reg_5_
*1223 G2_Datapath/Reg2/dout_reg_6_
*1224 G2_Datapath/Reg2/dout_reg_7_
*1225 G2_Datapath/Reg2/dout_reg_8_
*1226 G2_Datapath/Reg2/ropt_h_inst_5907
*1227 G2_Datapath/Reg3/U10
*1228 G2_Datapath/Reg3/U11
*1229 G2_Datapath/Reg3/U12
*1230 G2_Datapath/Reg3/U3
*1231 G2_Datapath/Reg3/U4
*1232 G2_Datapath/Reg3/U5
*1233 G2_Datapath/Reg3/U6
*1234 G2_Datapath/Reg3/U7
*1235 G2_Datapath/Reg3/U8
*1236 G2_Datapath/Reg3/U9
*1237 G2_Datapath/Reg3/copt_h_inst_5608
*1238 G2_Datapath/Reg3/copt_h_inst_5609
*1239 G2_Datapath/Reg3/copt_h_inst_5610
*1240 G2_Datapath/Reg3/copt_h_inst_5615
*1241 G2_Datapath/Reg3/copt_h_inst_5616
*1242 G2_Datapath/Reg3/copt_h_inst_5617
*1243 G2_Datapath/Reg3/copt_h_inst_5626
*1244 G2_Datapath/Reg3/copt_h_inst_5627
*1245 G2_Datapath/Reg3/copt_h_inst_5628
*1246 G2_Datapath/Reg3/copt_h_inst_5632
*1247 G2_Datapath/Reg3/copt_h_inst_5633
*1248 G2_Datapath/Reg3/copt_h_inst_5634
*1249 G2_Datapath/Reg3/copt_h_inst_5644
*1250 G2_Datapath/Reg3/copt_h_inst_5645
*1251 G2_Datapath/Reg3/copt_h_inst_5646
*1252 G2_Datapath/Reg3/copt_h_inst_5710
*1253 G2_Datapath/Reg3/copt_h_inst_5711
*1254 G2_Datapath/Reg3/copt_h_inst_5712
*1255 G2_Datapath/Reg3/copt_h_inst_5722
*1256 G2_Datapath/Reg3/copt_h_inst_5723
*1257 G2_Datapath/Reg3/copt_h_inst_5724
*1258 G2_Datapath/Reg3/copt_h_inst_5746
*1259 G2_Datapath/Reg3/copt_h_inst_5747
*1260 G2_Datapath/Reg3/copt_h_inst_5748
*1261 G2_Datapath/Reg3/copt_h_inst_5749
*1262 G2_Datapath/Reg3/copt_h_inst_5750
*1263 G2_Datapath/Reg3/copt_h_inst_5751
*1264 G2_Datapath/Reg3/dout_reg_0_
*1265 G2_Datapath/Reg3/dout_reg_1_
*1266 G2_Datapath/Reg3/dout_reg_2_
*1267 G2_Datapath/Reg3/dout_reg_3_
*1268 G2_Datapath/Reg3/dout_reg_4_
*1269 G2_Datapath/Reg3/dout_reg_5_
*1270 G2_Datapath/Reg3/dout_reg_6_
*1271 G2_Datapath/Reg3/dout_reg_7_
*1272 G2_Datapath/Reg3/dout_reg_8_
*1273 G2_Datapath/Reg4/U10
*1274 G2_Datapath/Reg4/U11
*1275 G2_Datapath/Reg4/U12
*1276 G2_Datapath/Reg4/U3
*1277 G2_Datapath/Reg4/U4
*1278 G2_Datapath/Reg4/U5
*1279 G2_Datapath/Reg4/U6
*1280 G2_Datapath/Reg4/U7
*1281 G2_Datapath/Reg4/U8
*1282 G2_Datapath/Reg4/U9
*1283 G2_Datapath/Reg4/copt_h_inst_5573
*1284 G2_Datapath/Reg4/copt_h_inst_5574
*1285 G2_Datapath/Reg4/copt_h_inst_5575
*1286 G2_Datapath/Reg4/copt_h_inst_5576
*1287 G2_Datapath/Reg4/copt_h_inst_5596
*1288 G2_Datapath/Reg4/copt_h_inst_5597
*1289 G2_Datapath/Reg4/copt_h_inst_5598
*1290 G2_Datapath/Reg4/copt_h_inst_5599
*1291 G2_Datapath/Reg4/copt_h_inst_5604
*1292 G2_Datapath/Reg4/copt_h_inst_5605
*1293 G2_Datapath/Reg4/copt_h_inst_5606
*1294 G2_Datapath/Reg4/copt_h_inst_5607
*1295 G2_Datapath/Reg4/copt_h_inst_5635
*1296 G2_Datapath/Reg4/copt_h_inst_5636
*1297 G2_Datapath/Reg4/copt_h_inst_5637
*1298 G2_Datapath/Reg4/copt_h_inst_5668
*1299 G2_Datapath/Reg4/copt_h_inst_5669
*1300 G2_Datapath/Reg4/copt_h_inst_5670
*1301 G2_Datapath/Reg4/copt_h_inst_5692
*1302 G2_Datapath/Reg4/copt_h_inst_5693
*1303 G2_Datapath/Reg4/copt_h_inst_5694
*1304 G2_Datapath/Reg4/copt_h_inst_5695
*1305 G2_Datapath/Reg4/copt_h_inst_5696
*1306 G2_Datapath/Reg4/copt_h_inst_5697
*1307 G2_Datapath/Reg4/copt_h_inst_5719
*1308 G2_Datapath/Reg4/copt_h_inst_5720
*1309 G2_Datapath/Reg4/copt_h_inst_5721
*1310 G2_Datapath/Reg4/copt_h_inst_5755
*1311 G2_Datapath/Reg4/copt_h_inst_5756
*1312 G2_Datapath/Reg4/copt_h_inst_5757
*1313 G2_Datapath/Reg4/dout_reg_0_
*1314 G2_Datapath/Reg4/dout_reg_1_
*1315 G2_Datapath/Reg4/dout_reg_2_
*1316 G2_Datapath/Reg4/dout_reg_3_
*1317 G2_Datapath/Reg4/dout_reg_4_
*1318 G2_Datapath/Reg4/dout_reg_5_
*1319 G2_Datapath/Reg4/dout_reg_6_
*1320 G2_Datapath/Reg4/dout_reg_7_
*1321 G2_Datapath/Reg4/dout_reg_8_
*1322 G2_Datapath/Reg5/U10
*1323 G2_Datapath/Reg5/U11
*1324 G2_Datapath/Reg5/U12
*1325 G2_Datapath/Reg5/U3
*1326 G2_Datapath/Reg5/U4
*1327 G2_Datapath/Reg5/U5
*1328 G2_Datapath/Reg5/U6
*1329 G2_Datapath/Reg5/U7
*1330 G2_Datapath/Reg5/U8
*1331 G2_Datapath/Reg5/U9
*1332 G2_Datapath/Reg5/copt_h_inst_5674
*1333 G2_Datapath/Reg5/copt_h_inst_5675
*1334 G2_Datapath/Reg5/copt_h_inst_5676
*1335 G2_Datapath/Reg5/copt_h_inst_5689
*1336 G2_Datapath/Reg5/copt_h_inst_5690
*1337 G2_Datapath/Reg5/copt_h_inst_5691
*1338 G2_Datapath/Reg5/copt_h_inst_5752
*1339 G2_Datapath/Reg5/copt_h_inst_5753
*1340 G2_Datapath/Reg5/copt_h_inst_5754
*1341 G2_Datapath/Reg5/copt_h_inst_5767
*1342 G2_Datapath/Reg5/copt_h_inst_5768
*1343 G2_Datapath/Reg5/copt_h_inst_5769
*1344 G2_Datapath/Reg5/copt_h_inst_5773
*1345 G2_Datapath/Reg5/copt_h_inst_5774
*1346 G2_Datapath/Reg5/copt_h_inst_5775
*1347 G2_Datapath/Reg5/copt_h_inst_5776
*1348 G2_Datapath/Reg5/copt_h_inst_5777
*1349 G2_Datapath/Reg5/copt_h_inst_5778
*1350 G2_Datapath/Reg5/copt_h_inst_5782
*1351 G2_Datapath/Reg5/copt_h_inst_5783
*1352 G2_Datapath/Reg5/copt_h_inst_5784
*1353 G2_Datapath/Reg5/copt_h_inst_5864
*1354 G2_Datapath/Reg5/copt_h_inst_5865
*1355 G2_Datapath/Reg5/copt_h_inst_5866
*1356 G2_Datapath/Reg5/copt_h_inst_5867
*1357 G2_Datapath/Reg5/copt_h_inst_5868
*1358 G2_Datapath/Reg5/copt_h_inst_5869
*1359 G2_Datapath/Reg5/dout_reg_0_
*1360 G2_Datapath/Reg5/dout_reg_1_
*1361 G2_Datapath/Reg5/dout_reg_2_
*1362 G2_Datapath/Reg5/dout_reg_3_
*1363 G2_Datapath/Reg5/dout_reg_4_
*1364 G2_Datapath/Reg5/dout_reg_5_
*1365 G2_Datapath/Reg5/dout_reg_6_
*1366 G2_Datapath/Reg5/dout_reg_7_
*1367 G2_Datapath/Reg5/dout_reg_8_
*1368 G2_Datapath/Reg6/U10
*1369 G2_Datapath/Reg6/U11
*1370 G2_Datapath/Reg6/U12
*1371 G2_Datapath/Reg6/U3
*1372 G2_Datapath/Reg6/U4
*1373 G2_Datapath/Reg6/U5
*1374 G2_Datapath/Reg6/U6
*1375 G2_Datapath/Reg6/U7
*1376 G2_Datapath/Reg6/U8
*1377 G2_Datapath/Reg6/U9
*1378 G2_Datapath/Reg6/copt_h_inst_5562
*1379 G2_Datapath/Reg6/copt_h_inst_5563
*1380 G2_Datapath/Reg6/copt_h_inst_5564
*1381 G2_Datapath/Reg6/copt_h_inst_5565
*1382 G2_Datapath/Reg6/copt_h_inst_5566
*1383 G2_Datapath/Reg6/copt_h_inst_5567
*1384 G2_Datapath/Reg6/copt_h_inst_5568
*1385 G2_Datapath/Reg6/copt_h_inst_5577
*1386 G2_Datapath/Reg6/copt_h_inst_5578
*1387 G2_Datapath/Reg6/copt_h_inst_5579
*1388 G2_Datapath/Reg6/copt_h_inst_5629
*1389 G2_Datapath/Reg6/copt_h_inst_5630
*1390 G2_Datapath/Reg6/copt_h_inst_5631
*1391 G2_Datapath/Reg6/copt_h_inst_5665
*1392 G2_Datapath/Reg6/copt_h_inst_5666
*1393 G2_Datapath/Reg6/copt_h_inst_5667
*1394 G2_Datapath/Reg6/copt_h_inst_5680
*1395 G2_Datapath/Reg6/copt_h_inst_5681
*1396 G2_Datapath/Reg6/copt_h_inst_5682
*1397 G2_Datapath/Reg6/copt_h_inst_5731
*1398 G2_Datapath/Reg6/copt_h_inst_5732
*1399 G2_Datapath/Reg6/copt_h_inst_5733
*1400 G2_Datapath/Reg6/copt_h_inst_5838
*1401 G2_Datapath/Reg6/copt_h_inst_5839
*1402 G2_Datapath/Reg6/copt_h_inst_5840
*1403 G2_Datapath/Reg6/copt_h_inst_5851
*1404 G2_Datapath/Reg6/copt_h_inst_5872
*1405 G2_Datapath/Reg6/copt_h_inst_5873
*1406 G2_Datapath/Reg6/copt_h_inst_5881
*1407 G2_Datapath/Reg6/copt_h_inst_5897
*1408 G2_Datapath/Reg6/dout_reg_0_
*1409 G2_Datapath/Reg6/dout_reg_1_
*1410 G2_Datapath/Reg6/dout_reg_2_
*1411 G2_Datapath/Reg6/dout_reg_3_
*1412 G2_Datapath/Reg6/dout_reg_4_
*1413 G2_Datapath/Reg6/dout_reg_5_
*1414 G2_Datapath/Reg6/dout_reg_6_
*1415 G2_Datapath/Reg6/dout_reg_7_
*1416 G2_Datapath/Reg6/dout_reg_8_
*1417 G2_Datapath/Reg7/U10
*1418 G2_Datapath/Reg7/U11
*1419 G2_Datapath/Reg7/U12
*1420 G2_Datapath/Reg7/U3
*1421 G2_Datapath/Reg7/U4
*1422 G2_Datapath/Reg7/U5
*1423 G2_Datapath/Reg7/U6
*1424 G2_Datapath/Reg7/U7
*1425 G2_Datapath/Reg7/U8
*1426 G2_Datapath/Reg7/U9
*1427 G2_Datapath/Reg7/copt_h_inst_5618
*1428 G2_Datapath/Reg7/copt_h_inst_5619
*1429 G2_Datapath/Reg7/copt_h_inst_5620
*1430 G2_Datapath/Reg7/copt_h_inst_5621
*1431 G2_Datapath/Reg7/copt_h_inst_5622
*1432 G2_Datapath/Reg7/copt_h_inst_5623
*1433 G2_Datapath/Reg7/copt_h_inst_5624
*1434 G2_Datapath/Reg7/copt_h_inst_5625
*1435 G2_Datapath/Reg7/copt_h_inst_5653
*1436 G2_Datapath/Reg7/copt_h_inst_5654
*1437 G2_Datapath/Reg7/copt_h_inst_5655
*1438 G2_Datapath/Reg7/copt_h_inst_5671
*1439 G2_Datapath/Reg7/copt_h_inst_5672
*1440 G2_Datapath/Reg7/copt_h_inst_5673
*1441 G2_Datapath/Reg7/copt_h_inst_5677
*1442 G2_Datapath/Reg7/copt_h_inst_5678
*1443 G2_Datapath/Reg7/copt_h_inst_5679
*1444 G2_Datapath/Reg7/copt_h_inst_5707
*1445 G2_Datapath/Reg7/copt_h_inst_5708
*1446 G2_Datapath/Reg7/copt_h_inst_5709
*1447 G2_Datapath/Reg7/copt_h_inst_5725
*1448 G2_Datapath/Reg7/copt_h_inst_5726
*1449 G2_Datapath/Reg7/copt_h_inst_5727
*1450 G2_Datapath/Reg7/copt_h_inst_5842
*1451 G2_Datapath/Reg7/copt_h_inst_5843
*1452 G2_Datapath/Reg7/copt_h_inst_5844
*1453 G2_Datapath/Reg7/copt_h_inst_5855
*1454 G2_Datapath/Reg7/copt_h_inst_5856
*1455 G2_Datapath/Reg7/copt_h_inst_5857
*1456 G2_Datapath/Reg7/copt_h_inst_5883
*1457 G2_Datapath/Reg7/copt_h_inst_5884
*1458 G2_Datapath/Reg7/dout_reg_0_
*1459 G2_Datapath/Reg7/dout_reg_1_
*1460 G2_Datapath/Reg7/dout_reg_2_
*1461 G2_Datapath/Reg7/dout_reg_3_
*1462 G2_Datapath/Reg7/dout_reg_4_
*1463 G2_Datapath/Reg7/dout_reg_5_
*1464 G2_Datapath/Reg7/dout_reg_6_
*1465 G2_Datapath/Reg7/dout_reg_7_
*1466 G2_Datapath/Reg7/dout_reg_8_
*1467 G2_Datapath/Reg7/ropt_h_inst_5909
*1468 G2_Datapath/add_top/U1
*1469 G2_Datapath/add_top/U10
*1470 G2_Datapath/add_top/U2
*1471 G2_Datapath/add_top/U3
*1472 G2_Datapath/add_top/U4
*1473 G2_Datapath/add_top/U5
*1474 G2_Datapath/add_top/U6
*1475 G2_Datapath/add_top/U7
*1476 G2_Datapath/add_top/U8
*1477 G2_Datapath/add_top/U9
*1478 G2_Datapath/add_top/add1/csa_slice1/copt_h_inst_5900
*1479 G2_Datapath/add_top/add1/csa_slice1/copt_h_inst_5901
*1480 G2_Datapath/add_top/add1/csa_slice1/mc0/U1
*1481 G2_Datapath/add_top/add1/csa_slice1/ms0/U1
*1482 G2_Datapath/add_top/add1/csa_slice1/ms0/U2
*1483 G2_Datapath/add_top/add1/csa_slice1/ms0/U3
*1484 G2_Datapath/add_top/add1/csa_slice1/ms0/U4
*1485 G2_Datapath/add_top/add1/csa_slice1/rca1/fa0/h1/U1
*1486 G2_Datapath/add_top/add1/csa_slice1/rca1/fa0/h1/U2
*1487 G2_Datapath/add_top/add1/csa_slice1/rca1/fa1/U1
*1488 G2_Datapath/add_top/add1/csa_slice1/rca1/fa1/h1/U1
*1489 G2_Datapath/add_top/add1/csa_slice1/rca1/fa1/h1/U2
*1490 G2_Datapath/add_top/add1/csa_slice1/rca1/fa1/h2/U1
*1491 G2_Datapath/add_top/add1/csa_slice1/rca1/fa1/h2/U2
*1492 G2_Datapath/add_top/add1/csa_slice1/rca1/fa2/U1
*1493 G2_Datapath/add_top/add1/csa_slice1/rca1/fa2/h1/U1
*1494 G2_Datapath/add_top/add1/csa_slice1/rca1/fa2/h1/U2
*1495 G2_Datapath/add_top/add1/csa_slice1/rca1/fa2/h2/U1
*1496 G2_Datapath/add_top/add1/csa_slice1/rca1/fa2/h2/U2
*1497 G2_Datapath/add_top/add1/csa_slice1/rca1/fa3/U1
*1498 G2_Datapath/add_top/add1/csa_slice1/rca1/fa3/h1/U1
*1499 G2_Datapath/add_top/add1/csa_slice1/rca1/fa3/h1/U2
*1500 G2_Datapath/add_top/add1/csa_slice1/rca1/fa3/h2/U1
*1501 G2_Datapath/add_top/add1/csa_slice1/rca1/fa3/h2/U2
*1502 G2_Datapath/add_top/add1/csa_slice1/rca2/fa0/U2
*1503 G2_Datapath/add_top/add1/csa_slice1/rca2/fa0/h1/U1
*1504 G2_Datapath/add_top/add1/csa_slice1/rca2/fa0/h1/U2
*1505 G2_Datapath/add_top/add1/csa_slice1/rca2/fa0/h2/U1
*1506 G2_Datapath/add_top/add1/csa_slice1/rca2/fa1/U1
*1507 G2_Datapath/add_top/add1/csa_slice1/rca2/fa1/h1/U1
*1508 G2_Datapath/add_top/add1/csa_slice1/rca2/fa1/h1/U2
*1509 G2_Datapath/add_top/add1/csa_slice1/rca2/fa1/h2/U1
*1510 G2_Datapath/add_top/add1/csa_slice1/rca2/fa1/h2/U2
*1511 G2_Datapath/add_top/add1/csa_slice1/rca2/fa2/U1
*1512 G2_Datapath/add_top/add1/csa_slice1/rca2/fa2/h1/U1
*1513 G2_Datapath/add_top/add1/csa_slice1/rca2/fa2/h1/U2
*1514 G2_Datapath/add_top/add1/csa_slice1/rca2/fa2/h2/U1
*1515 G2_Datapath/add_top/add1/csa_slice1/rca2/fa2/h2/U2
*1516 G2_Datapath/add_top/add1/csa_slice1/rca2/fa3/U1
*1517 G2_Datapath/add_top/add1/csa_slice1/rca2/fa3/h1/U1
*1518 G2_Datapath/add_top/add1/csa_slice1/rca2/fa3/h1/U2
*1519 G2_Datapath/add_top/add1/csa_slice1/rca2/fa3/h2/U1
*1520 G2_Datapath/add_top/add1/csa_slice1/rca2/fa3/h2/U2
*1521 G2_Datapath/add_top/add1/csa_slice2/ms0/U1
*1522 G2_Datapath/add_top/add1/csa_slice2/ms0/U2
*1523 G2_Datapath/add_top/add1/csa_slice2/ms0/U3
*1524 G2_Datapath/add_top/add1/csa_slice2/ms0/U4
*1525 G2_Datapath/add_top/add1/csa_slice2/ms0/copt_h_inst_5896
*1526 G2_Datapath/add_top/add1/csa_slice2/rca1/fa0/h1/U1
*1527 G2_Datapath/add_top/add1/csa_slice2/rca1/fa0/h1/U2
*1528 G2_Datapath/add_top/add1/csa_slice2/rca1/fa1/U1
*1529 G2_Datapath/add_top/add1/csa_slice2/rca1/fa1/h1/U1
*1530 G2_Datapath/add_top/add1/csa_slice2/rca1/fa1/h1/U2
*1531 G2_Datapath/add_top/add1/csa_slice2/rca1/fa1/h2/U1
*1532 G2_Datapath/add_top/add1/csa_slice2/rca1/fa1/h2/U2
*1533 G2_Datapath/add_top/add1/csa_slice2/rca1/fa2/U1
*1534 G2_Datapath/add_top/add1/csa_slice2/rca1/fa2/h1/U1
*1535 G2_Datapath/add_top/add1/csa_slice2/rca1/fa2/h1/U2
*1536 G2_Datapath/add_top/add1/csa_slice2/rca1/fa2/h2/U1
*1537 G2_Datapath/add_top/add1/csa_slice2/rca1/fa2/h2/U2
*1538 G2_Datapath/add_top/add1/csa_slice2/rca1/fa3/h1/U1
*1539 G2_Datapath/add_top/add1/csa_slice2/rca1/fa3/h2/U1
*1540 G2_Datapath/add_top/add1/csa_slice2/rca2/fa0/U2
*1541 G2_Datapath/add_top/add1/csa_slice2/rca2/fa0/h1/U1
*1542 G2_Datapath/add_top/add1/csa_slice2/rca2/fa0/h1/U2
*1543 G2_Datapath/add_top/add1/csa_slice2/rca2/fa0/h2/U1
*1544 G2_Datapath/add_top/add1/csa_slice2/rca2/fa1/U1
*1545 G2_Datapath/add_top/add1/csa_slice2/rca2/fa1/h1/U1
*1546 G2_Datapath/add_top/add1/csa_slice2/rca2/fa1/h1/U2
*1547 G2_Datapath/add_top/add1/csa_slice2/rca2/fa1/h2/U1
*1548 G2_Datapath/add_top/add1/csa_slice2/rca2/fa1/h2/U2
*1549 G2_Datapath/add_top/add1/csa_slice2/rca2/fa2/U1
*1550 G2_Datapath/add_top/add1/csa_slice2/rca2/fa2/h1/U1
*1551 G2_Datapath/add_top/add1/csa_slice2/rca2/fa2/h1/U2
*1552 G2_Datapath/add_top/add1/csa_slice2/rca2/fa2/h2/U1
*1553 G2_Datapath/add_top/add1/csa_slice2/rca2/fa2/h2/U2
*1554 G2_Datapath/add_top/add1/csa_slice2/rca2/fa3/h1/U1
*1555 G2_Datapath/add_top/add1/csa_slice2/rca2/fa3/h2/U1
*1556 G2_Datapath/add_top/add1/fa0/U1
*1557 G2_Datapath/add_top/add1/fa0/h1/U1
*1558 G2_Datapath/add_top/add1/fa0/h1/U2
*1559 G2_Datapath/add_top/add1/fa0/h1/copt_h_inst_5871
*1560 G2_Datapath/add_top/add1/fa0/h2/U1
*1561 G2_Datapath/add_top/add1/fa0/h2/U2
*1562 G2_Datapath/g2/U10
*1563 G2_Datapath/g2/U11
*1564 G2_Datapath/g2/U2
*1565 G2_Datapath/g2/U3
*1566 G2_Datapath/g2/U4
*1567 G2_Datapath/g2/U5
*1568 G2_Datapath/g2/U6
*1569 G2_Datapath/g2/U7
*1570 G2_Datapath/g2/U8
*1571 G2_Datapath/g2/U9
*1572 G2_Datapath/g2/Z_reg_0_
*1573 G2_Datapath/g2/Z_reg_1_
*1574 G2_Datapath/g2/Z_reg_2_
*1575 G2_Datapath/g2/Z_reg_3_
*1576 G2_Datapath/g2/Z_reg_4_
*1577 G2_Datapath/g2/Z_reg_5_
*1578 G2_Datapath/g2/Z_reg_6_
*1579 G2_Datapath/g2/Z_reg_7_
*1580 G2_Datapath/g2/Z_reg_8_
*1581 G2_Datapath/g2/copt_h_inst_5554
*1582 G2_Datapath/g2/copt_h_inst_5555
*1583 G2_Datapath/g2/copt_h_inst_5556
*1584 G2_Datapath/g2/copt_h_inst_5557
*1585 G2_Datapath/g2/copt_h_inst_5822
*1586 G2_Datapath/g2/copt_h_inst_5823
*1587 G2_Datapath/g2/copt_h_inst_5824
*1588 G2_Datapath/g2/copt_h_inst_5825
*1589 G2_Datapath/g2/copt_h_inst_5826
*1590 G2_Datapath/g2/copt_h_inst_5827
*1591 G2_Datapath/g2/copt_h_inst_5828
*1592 G2_Datapath/g2/copt_h_inst_5829
*1593 G2_Datapath/g2/copt_h_inst_5830
*1594 G2_Datapath/g2/copt_h_inst_5831
*1595 G2_Datapath/g2/copt_h_inst_5832
*1596 G2_Datapath/g2/copt_h_inst_5833
*1597 G2_Datapath/g2/copt_h_inst_5834
*1598 G2_Datapath/g2/copt_h_inst_5835
*1599 G2_Datapath/g2/copt_h_inst_5836
*1600 G2_Datapath/g2/copt_h_inst_5874
*1601 G2_Datapath/g2/copt_h_inst_5879
*1602 G2_Datapath/g2/copt_h_inst_5880
*1603 G2_Datapath/g2/copt_h_inst_5882
*1604 G2_Datapath/g2/copt_h_inst_5891
*1605 G2_Datapath/g2/copt_h_inst_5892
*1606 G2_Datapath/g2/copt_h_inst_5893
*1607 G2_Datapath/g2/copt_h_inst_5894
*1608 G2_Datapath/g2/copt_h_inst_5895
*1609 G2_Datapath/g2/copt_h_inst_5898
*1610 G2_Datapath/g2/copt_h_inst_5899
*1611 G2_Datapath/g2/copt_h_inst_5902
*1612 G2_Datapath/g2/copt_h_inst_5903
*1613 G2_Datapath/g2/copt_h_inst_5904
*1614 G2_Datapath/g2/copt_h_inst_5905
*1615 G2_Datapath/g2/copt_h_inst_5906
*1616 G2_Datapath/m1/Bus_reg_0_
*1617 G2_Datapath/m1/Bus_reg_1_
*1618 G2_Datapath/m1/Bus_reg_2_
*1619 G2_Datapath/m1/Bus_reg_3_
*1620 G2_Datapath/m1/Bus_reg_4_
*1621 G2_Datapath/m1/Bus_reg_5_
*1622 G2_Datapath/m1/Bus_reg_6_
*1623 G2_Datapath/m1/Bus_reg_7_
*1624 G2_Datapath/m1/Bus_reg_8_
*1625 G2_Datapath/m1/U10
*1626 G2_Datapath/m1/U11
*1627 G2_Datapath/m1/U12
*1628 G2_Datapath/m1/U13
*1629 G2_Datapath/m1/U14
*1630 G2_Datapath/m1/U15
*1631 G2_Datapath/m1/U16
*1632 G2_Datapath/m1/U17
*1633 G2_Datapath/m1/U18
*1634 G2_Datapath/m1/U19
*1635 G2_Datapath/m1/U20
*1636 G2_Datapath/m1/U21
*1637 G2_Datapath/m1/U22
*1638 G2_Datapath/m1/U23
*1639 G2_Datapath/m1/U24
*1640 G2_Datapath/m1/U25
*1641 G2_Datapath/m1/U26
*1642 G2_Datapath/m1/U27
*1643 G2_Datapath/m1/U28
*1644 G2_Datapath/m1/U29
*1645 G2_Datapath/m1/U3
*1646 G2_Datapath/m1/U30
*1647 G2_Datapath/m1/U31
*1648 G2_Datapath/m1/U32
*1649 G2_Datapath/m1/U33
*1650 G2_Datapath/m1/U34
*1651 G2_Datapath/m1/U35
*1652 G2_Datapath/m1/U36
*1653 G2_Datapath/m1/U37
*1654 G2_Datapath/m1/U38
*1655 G2_Datapath/m1/U39
*1656 G2_Datapath/m1/U4
*1657 G2_Datapath/m1/U40
*1658 G2_Datapath/m1/U41
*1659 G2_Datapath/m1/U42
*1660 G2_Datapath/m1/U43
*1661 G2_Datapath/m1/U44
*1662 G2_Datapath/m1/U45
*1663 G2_Datapath/m1/U46
*1664 G2_Datapath/m1/U47
*1665 G2_Datapath/m1/U48
*1666 G2_Datapath/m1/U49
*1667 G2_Datapath/m1/U5
*1668 G2_Datapath/m1/U50
*1669 G2_Datapath/m1/U51
*1670 G2_Datapath/m1/U52
*1671 G2_Datapath/m1/U53
*1672 G2_Datapath/m1/U54
*1673 G2_Datapath/m1/U55
*1674 G2_Datapath/m1/U56
*1675 G2_Datapath/m1/U57
*1676 G2_Datapath/m1/U58
*1677 G2_Datapath/m1/U59
*1678 G2_Datapath/m1/U6
*1679 G2_Datapath/m1/U60
*1680 G2_Datapath/m1/U61
*1681 G2_Datapath/m1/U62
*1682 G2_Datapath/m1/U63
*1683 G2_Datapath/m1/U64
*1684 G2_Datapath/m1/U65
*1685 G2_Datapath/m1/U66
*1686 G2_Datapath/m1/U67
*1687 G2_Datapath/m1/U68
*1688 G2_Datapath/m1/U69
*1689 G2_Datapath/m1/U7
*1690 G2_Datapath/m1/U70
*1691 G2_Datapath/m1/U71
*1692 G2_Datapath/m1/U72
*1693 G2_Datapath/m1/U73
*1694 G2_Datapath/m1/U74
*1695 G2_Datapath/m1/U75
*1696 G2_Datapath/m1/U76
*1697 G2_Datapath/m1/U77
*1698 G2_Datapath/m1/U78
*1699 G2_Datapath/m1/U79
*1700 G2_Datapath/m1/U8
*1701 G2_Datapath/m1/U80
*1702 G2_Datapath/m1/U81
*1703 G2_Datapath/m1/U82
*1704 G2_Datapath/m1/U83
*1705 G2_Datapath/m1/U84
*1706 G2_Datapath/m1/U85
*1707 G2_Datapath/m1/U86
*1708 G2_Datapath/m1/U87
*1709 G2_Datapath/m1/U88
*1710 G2_Datapath/m1/U89
*1711 G2_Datapath/m1/U9
*1712 G2_Datapath/m1/U90
*1713 G2_Datapath/m1/U91
*1714 G2_Datapath/m1/U92
*1715 G2_Datapath/m1/U93
*1716 G2_Datapath/m1/U94
*1717 G2_Datapath/m1/U95
*1718 G2_Datapath/m1/U96
*1719 G2_Datapath/m1/U97
*1720 G2_Datapath/m1/U98
*1721 G2_Datapath/m1/U99
*1722 ZBUF_236_inst_10
*1723 cts_buf_1335540
*1724 cts_buf_1345541
*1725 cts_buf_1355542