*SPEF "IEEE 1481-1999"
*DESIGN "alu"
*DATE "Wed May 25 18:00:41 2022"
*VENDOR "Synopsys Inc."
*PROGRAM "StarRC"
*VERSION "P-2019.03-SP4"
*DESIGN_FLOW "PIN_CAP NONE" "NAME_SCOPE LOCAL"
*DIVIDER /
*DELIMITER :
*BUS_DELIMITER []
*T_UNIT 1.0 NS
*C_UNIT 1.0 FF
*R_UNIT 1.0 OHM
*L_UNIT 1.0 HENRY

// COMMENTS

// OPERATING_TEMPERATURE 25
// GLOBAL_TEMPERATURE 25
// TCAD_GRD_FILE ../saed14nm_1p9m_Cmax.nxtgrd
//   TCAD_TIME_STAMP Mon Oct 16 09:06:32 2017
//   TCADGRD_VERSION 81
// galaxy_comments_begin
//   local_nodeid
// galaxy_comments_end

*NAME_MAP
*250 f[7]
*251 f[6]
*252 f[5]
*253 f[4]
*254 f[3]
*255 f[2]
*256 f[1]
*257 f[0]
*258 z
*259 c
*260 v
*261 agtb
*262 altb
*263 aeqb
*264 a[7]
*265 a[6]
*266 a[5]
*267 a[4]
*268 a[3]
*269 a[2]
*270 a[1]
*271 a[0]
*272 b[7]
*273 b[6]
*274 b[5]
*275 b[4]
*276 b[3]
*277 b[2]
*278 b[1]
*279 b[0]
*280 s[3]
*281 s[2]
*282 s[1]
*283 s[0]
*284 clk
*285 rst
*286 U10
*287 U11
*288 a_r_reg_0_
*289 a_r_reg_1_
*290 a_r_reg_2_
*291 a_r_reg_3_
*292 a_r_reg_4_
*293 a_r_reg_5_
*294 a_r_reg_6_
*295 a_r_reg_7_
*296 ab/U10
*297 ab/U11
*298 ab/U12
*299 ab/U13
*300 ab/U14
*301 ab/U15
*302 ab/U16
*303 ab/U17
*304 ab/U18
*305 ab/U19
*306 ab/U2
*307 ab/U20
*308 ab/U21
*309 ab/U22
*310 ab/U23
*311 ab/U3
*312 ab/U4
*313 ab/U5
*314 ab/U6
*315 ab/U7
*316 ab/U8
*317 ab/U9
*318 ab/cb/U1
*319 ab/cb/U10
*320 ab/cb/U11
*321 ab/cb/U12
*322 ab/cb/U13
*323 ab/cb/U14
*324 ab/cb/U15
*325 ab/cb/U16
*326 ab/cb/U17
*327 ab/cb/U18
*328 ab/cb/U19
*329 ab/cb/U2
*330 ab/cb/U20
*331 ab/cb/U21
*332 ab/cb/U22
*333 ab/cb/U23
*334 ab/cb/U24
*335 ab/cb/U25
*336 ab/cb/U26
*337 ab/cb/U27
*338 ab/cb/U28
*339 ab/cb/U29
*340 ab/cb/U3
*341 ab/cb/U30
*342 ab/cb/U31
*343 ab/cb/U32
*344 ab/cb/U33
*345 ab/cb/U34
*346 ab/cb/U35
*347 ab/cb/U36
*348 ab/cb/U37
*349 ab/cb/U38
*350 ab/cb/U39
*351 ab/cb/U4
*352 ab/cb/U40
*353 ab/cb/U41
*354 ab/cb/U42
*355 ab/cb/U43
*356 ab/cb/U44
*357 ab/cb/U45
*358 ab/cb/U46
*359 ab/cb/U47
*360 ab/cb/U48
*361 ab/cb/U5
*362 ab/cb/U6
*363 ab/cb/U7
*364 ab/cb/U8
*365 ab/cb/U9
*366 ab/f1/U1
*367 ab/f2/U1
*368 ab/f3/U1
*369 ab/f4/U1
*370 ab/f5/U1
*371 ab/f6/U1
*372 ab/f7/U1
*373 ab/h1/U1
*374 ab/h1/U2
*375 ab/m1/U10
*376 ab/m1/U2
*377 ab/m1/U3
*378 ab/m1/U4
*379 ab/m1/U5
*380 ab/m1/U6
*381 ab/m1/U7
*382 ab/m1/U8
*383 ab/m1/U9
*384 ab/m2/U1
*385 ab/m2/U2
*386 ab/m2/U3
*387 ab/m2/U4
*388 ab/m2/U5
*389 ab/m2/U6
*390 ab/m2/U7
*391 ab/m2/U8
*392 b_r_reg_0_
*393 b_r_reg_1_
*394 b_r_reg_2_
*395 b_r_reg_3_
*396 b_r_reg_4_
*397 b_r_reg_5_
*398 b_r_reg_6_
*399 b_r_reg_7_
*400 cts_buf_8584
*401 cts_buf_8685
*402 cts_trgdly_116
*403 cts_trgdly_145
*404 cts_trgdly_146
*405 cts_trgdly_147
*406 cts_trgdly_148
*407 cts_trgdly_149
*408 cts_trgdly_150
*409 cts_trgdly_151
*410 cts_trgdly_152
*411 cts_trgdly_153
*412 cts_trgdly_154
*413 cts_trgdly_155
*414 cts_trgdly_156
*415 cts_trgdly_157
*416 cts_trgdly_158
*417 cts_trgdly_159
*418 cts_trgdly_160
*419 cts_trgdly_161
*420 cts_trgdly_162
*421 cts_trgdly_163
*422 cts_trgdly_164
*423 cts_trgdly_165
*424 cts_trgdly_167
*425 cts_trgdly_169
*426 cts_trgdly_170
*427 cts_trgdly_171
*428 cts_trgdly_172
*429 cts_trgdly_173
*430 cts_trgdly_174
*431 lb/U1
*432 lb/U10
*433 lb/U11
*434 lb/U12
*435 lb/U13
*436 lb/U14
*437 lb/U15
*438 lb/U16
*439 lb/U17
*440 lb/U18
*441 lb/U19
*442 lb/U2
*443 lb/U20
*444 lb/U21
*445 lb/U22
*446 lb/U23
*447 lb/U24
*448 lb/U25
*449 lb/U26
*450 lb/U27
*451 lb/U28
*452 lb/U29
*453 lb/U3
*454 lb/U30
*455 lb/U31
*456 lb/U32
*457 lb/U33
*458 lb/U34
*459 lb/U4
*460 lb/U5
*461 lb/U6
*462 lb/U7
*463 lb/U8
*464 lb/U9
*465 mc1/U1
*466 mc1/U2
*467 mc1/U3
*468 mc1/U4
*469 mc1/U5
*470 mc1/U6
*471 mc1/U7
*472 mc1/U8
*473 mc2/U1
*474 mc2/U2
*475 mc2/U3
*476 mc2/U4
*477 mc2/U5
*478 mc2/U6
*479 mc2/U7
*480 mc2/U8
*481 rb/out_reg_0_
*482 rb/out_reg_1_
*483 rb/out_reg_2_
*484 rb/out_reg_3_
*485 rb/out_reg_4_
*486 rb/out_reg_5_
*487 rb/out_reg_6_
*488 rb/out_reg_7_
*489 s_r_reg_2_
*490 s_r_reg_3_
*491 sb/U3
*492 sb/U4
*493 sb/U5
*494 sb/U6
*495 sb/sh_reg_0_
*496 sb/sh_reg_1_
*497 sb/sh_reg_2_
*498 sb/sh_reg_3_
*499 sb/sh_reg_4_
*500 sb/sh_reg_5_
*501 sb/sh_reg_6_
*502 sb/sh_reg_7_
*1 f[7]
*2 f[6]
*3 f[5]
*4 f[4]
*5 f[3]
*6 f[2]
*7 f[1]
*8 f[0]
*9 z
*10 c
*11 v
*12 agtb
*13 altb
*14 aeqb
*15 a[7]
*16 a[6]
*17 a[5]
*18 a[4]
*19 a[3]
*20 a[2]
*21 a[1]
*22 a[0]
*23 b[7]
*24 b[6]
*25 b[5]
*26 b[4]
*27 b[3]
*28 b[2]
*29 b[1]
*30 b[0]
*31 s[3]
*32 s[2]
*33 s[1]
*34 s[0]
*35 clk
*36 rst
*40 a_out[0]
*41 a_out[1]
*42 a_out[2]
*43 a_out[3]
*44 a_out[4]
*45 a_out[5]
*46 a_out[6]
*47 a_out[7]
*48 a_r[0]
*49 a_r[1]
*50 a_r[2]
*51 a_r[3]
*52 a_r[4]
*53 a_r[5]
*54 a_r[6]
*55 a_r[7]
*56 ab/cb/n1
*57 ab/cb/n10
*58 ab/cb/n11
*59 ab/cb/n12
*60 ab/cb/n13
*61 ab/cb/n14
*62 ab/cb/n15
*63 ab/cb/n16
*64 ab/cb/n17
*65 ab/cb/n18
*66 ab/cb/n19
*67 ab/cb/n2
*68 ab/cb/n20
*69 ab/cb/n21
*70 ab/cb/n22
*71 ab/cb/n23
*72 ab/cb/n24
*73 ab/cb/n25
*74 ab/cb/n26
*75 ab/cb/n27
*76 ab/cb/n28
*77 ab/cb/n29
*78 ab/cb/n3
*79 ab/cb/n30
*80 ab/cb/n31
*81 ab/cb/n32
*82 ab/cb/n33
*83 ab/cb/n34
*84 ab/cb/n35
*85 ab/cb/n36
*86 ab/cb/n37
*87 ab/cb/n38
*88 ab/cb/n39
*89 ab/cb/n4
*90 ab/cb/n40
*91 ab/cb/n41
*92 ab/cb/n42
*93 ab/cb/n43
*94 ab/cb/n44
*95 ab/cb/n45
*96 ab/cb/n5
*97 ab/cb/n6
*98 ab/cb/n7
*99 ab/cb/n8
*100 ab/cb/n9
*101 ab/cp[1]
*102 ab/cp[2]
*103 ab/cp[3]
*104 ab/cp[4]
*105 ab/cp[5]
*106 ab/cp[6]
*107 ab/cp[7]
*108 ab/m1/n2
*109 ab/m1out[0]
*110 ab/m1out[1]
*111 ab/m1out[2]
*112 ab/m1out[3]
*113 ab/m1out[4]
*114 ab/m1out[5]
*115 ab/m1out[6]
*116 ab/m1out[7]
*117 ab/n10
*118 ab/n11
*119 ab/n12
*120 ab/n13
*121 ab/n2
*122 ab/n3
*123 ab/n4
*124 ab/n5
*125 ab/n6
*126 ab/n7
*127 ab/n8
*128 ab/n9
*129 ab/sum1[0]
*130 ab/sum1[1]
*131 ab/sum1[2]
*132 ab/sum1[3]
*133 ab/sum1[4]
*134 ab/sum1[5]
*135 ab/sum1[6]
*136 ab/sum1[7]
*137 ab/sum[0]
*138 ab/sum[1]
*139 ab/sum[2]
*140 ab/sum[3]
*141 ab/sum[4]
*142 ab/sum[5]
*143 ab/sum[6]
*144 ab/sum[7]
*145 b_r[0]
*146 b_r[1]
*147 b_r[2]
*148 b_r[3]
*149 b_r[4]
*150 b_r[5]
*151 b_r[6]
*152 b_r[7]
*153 c1_out[0]
*154 c1_out[1]
*155 c1_out[2]
*156 c1_out[3]
*157 c1_out[4]
*158 c1_out[5]
*159 c1_out[6]
*160 c1_out[7]
*161 c2_out[0]
*162 c2_out[1]
*163 c2_out[2]
*164 c2_out[3]
*165 c2_out[4]
*166 c2_out[5]
*167 c2_out[6]
*168 c2_out[7]
*169 cts0
*170 cts1
*171 cts10
*172 cts11
*173 cts12
*174 cts13
*175 cts14
*176 cts15
*177 cts16
*178 cts17
*179 cts18
*180 cts19
*181 cts2
*182 cts20
*183 cts21
*184 cts22
*185 cts23
*186 cts24
*187 cts25
*188 cts26
*189 cts27
*190 cts28
*191 cts3
*192 cts4
*193 cts5
*194 cts6
*195 cts7
*196 cts8
*197 cts9
*198 ctsbuf_net_10
*199 ctsbuf_net_21
*200 l_out[0]
*201 l_out[1]
*202 l_out[2]
*203 l_out[3]
*204 l_out[4]
*205 l_out[5]
*206 l_out[6]
*207 l_out[7]
*208 lb/n1
*209 lb/n10
*210 lb/n11
*211 lb/n12
*212 lb/n13
*213 lb/n14
*214 lb/n15
*215 lb/n16
*216 lb/n17
*217 lb/n18
*218 lb/n19
*219 lb/n2
*220 lb/n20
*221 lb/n21
*222 lb/n22
*223 lb/n23
*224 lb/n24
*225 lb/n25
*226 lb/n26
*227 lb/n3
*228 lb/n4
*229 lb/n5
*230 lb/n6
*231 lb/n7
*232 lb/n8
*233 lb/n9
*234 n8
*235 n9
*236 s_out[0]
*237 s_out[1]
*238 s_out[2]
*239 s_out[3]
*240 s_out[4]
*241 s_out[5]
*242 s_out[6]
*243 s_out[7]
*244 s_r[2]
*245 s_r[3]
*246 sb/N12
*247 sb/N19
*248 sb/n1
*249 sb/n2

*PORTS

*250 O
*251 O
*252 O
*253 O
*254 O
*255 O
*256 O
*257 O
*258 O
*259 O
*260 O
*261 O
*262 O
*263 O
*264 I
*265 I
*266 I
*267 I
*268 I
*269 I
*270 I
*271 I
*272 I
*273 I
*274 I
*275 I
*276 I
*277 I
*278 I
*279 I
*280 I
*281 I
*282 I
*283 I
*284 I
*285 I

// *LAYER_MAP

// *0 SUBSTRATE
// *1 DIFF    ITF=DIFF
// *2 PO    ITF=POLY
// *3 M1    ITF=M1
// *4 M2    ITF=M2
// *5 M3    ITF=M3
// *6 M4    ITF=M4
// *7 M5    ITF=M5
// *8 M6    ITF=M6
// *9 M7    ITF=M7
// *10 M8    ITF=M8
// *11 M9    ITF=M9
// *12 MRDL    ITF=MRDL
// *13 VIA1    ITF=VIA1
// *14 VIA2    ITF=VIA2
// *15 VIA3    ITF=VIA3
// *16 VIA4    ITF=VIA4
// *17 VIA5    ITF=VIA5
// *18 VIA6    ITF=VIA6
// *19 VIA7    ITF=VIA7
// *20 VIA8    ITF=VIA8
// *21 VIARDL    ITF=VIARDL

*D_NET *1 0.399437

*CONN
*P *250 O *C 14.5420 14.9330
*I *488:Q O *D SAEDHVT14_FDPRBQ_V2LP_0P5 *C 13.2470 11.6475

*CAP
1 *250 0.147129
2 *488:Q 0.0277972
3 *1:2 0.224511

*RES
1 *250 *1:2 11.03
2 *488:Q *1:2 2.77778
*END

*D_NET *2 0.584977

*CONN
*P *251 O *C 13.5060 14.9330
*I *487:Q O *D SAEDHVT14_FDPRBQ_V2LP_0P5 *C 13.2470 10.4635

*CAP
1 *251 0.160758
2 *487:Q 0.0291101
3 *2:2 0.395109

*RES
1 *251 *2:2 9.95376
2 *487:Q *2:2 2.77778
*END

*D_NET *3 0.362575

*CONN
*P *252 O *C 12.4700 14.9330
*I *486:Q O *D SAEDHVT14_FDPRBQ_V2LP_0P5 *C 13.2470 12.8315

*CAP
1 *252 0.179048
2 *486:Q 0.0270105
3 *3:2 0.156516

*RES
1 *252 *3:2 7.46513
2 *486:Q *3:2 2.77778
*END

*D_NET *4 0.425393

*CONN
*P *253 O *C 11.4340 14.9330
*I *485:Q O *D SAEDHVT14_FDPRBQ_V2LP_0P5 *C 12.0460 13.4935

*CAP
1 *253 0.233463
2 *4:2 0.0261649
3 *4:3 0.165765
4 *4:4 0.0

*RES
1 *253 *4:3 6.15572
2 *485:Q *4:2 0.001
3 *485:Q *4:3 2.77778
4 *485:Q *4:4 0.001
*END

*D_NET *5 0.305636

*CONN
*P *254 O *C 10.3980 14.9860
*I *484:Q O *D SAEDHVT14_FDPRBQ_V2LP_0P5 *C 10.2870 13.4235

*CAP
1 *254 0.00466028
2 *484:Q 0.113723
3 *5:2 0.162832
4 *5:4 0.0244208

*RES
1 *254 *5:2 0.347222
2 *254 *5:3 0.001
3 *254 *5:4 0.001
4 *484:Q *5:2 9.2549
*END

*D_NET *6 0.472373

*CONN
*P *255 O *C 9.3620 14.9330
*I *483:Q O *D SAEDHVT14_FDPRBQ_V2LP_0P5 *C 8.9720 12.8400

*CAP
1 *255 0.0325314
2 *483:Q 0.164542
3 *6:2 0.2753
4 *6:3 0.0

*RES
1 *255 *6:2 0.528333
2 *483:Q *6:2 8.27359
3 *483:Q *6:3 0.001
*END

*D_NET *7 0.325022

*CONN
*P *256 O *C 8.3260 14.9330
*I *482:Q O *D SAEDHVT14_FDPRBQ_V2LP_0P5 *C 6.8090 13.4235

*CAP
1 *256 0.143186
2 *482:Q 0.0306125
3 *7:2 0.151224

*RES
1 *256 *7:2 9.07474
2 *482:Q *7:2 2.77778
*END

*D_NET *8 0.352451

*CONN
*P *257 O *C 7.2160 14.9330
*I *481:Q O *D SAEDHVT14_FDPRBQ_V2LP_0P5 *C 4.9590 13.4235

*CAP
1 *257 0.13677
2 *481:Q 0.0301371
3 *8:2 0.185543

*RES
1 *257 *8:2 12.0351
2 *481:Q *8:2 2.77778
*END

*D_NET *9 0.647878

*CONN
*P *258 O *C 6.1650 14.9075
*I *312:X O *D SAEDHVT14_NR2_MM_0P5 *C 5.5570 11.9440

*CAP
1 *258 0.404895
2 *9:2 0.0145947
3 *9:4 0.000589886
4 *9:5 0.227798
5 *9:7 0.0

*RES
1 *258 *9:4 0.001
2 *258 *9:5 9.23331
3 *312:X *9:2 0.114071
4 *9:2 *9:3 0.001
5 *9:2 *9:5 2.77778
6 *9:2 *9:6 0.001
7 *9:2 *9:7 0.001
*END

*D_NET *10 1.14089

*CONN
*P *259 O *C 5.1290 14.9075
*I *313:A2 I *C 5.7560 12.6180
*I *372:CO O *D SAEDHVT14_ADDF_V1_0P5 *C 7.4750 11.6475

*CAP
1 *259 0.0230915
2 *372:CO 0.254332
3 *10:3 0.0265248
4 *10:4 0.0169642
5 *10:5 0.293289
6 *10:6 0.211526
7 *10:7 0.315159
8 *10:8 0.0

*RES
1 *259 *10:5 0.001
2 *313:A2 *10:4 0.001
3 *372:CO *10:7 12.1644
4 *10:3 *10:4 2.70882
5 *10:3 *10:7 2.77778
6 *10:3 *10:8 0.001
7 *10:4 *10:6 2.77778
8 *10:5 *10:6 6.92582
*END

*D_NET *11 0.526951

*CONN
*P *260 O *C 4.1080 14.9330
*I *313:X O *D SAEDHVT14_EO2_V1_0P75 *C 6.0330 12.6055

*CAP
1 *260 0.121942
2 *11:2 0.347938
3 *11:3 0.0570713

*RES
1 *260 *11:2 7.71487
2 *313:X *11:3 0.0897421
3 *11:2 *11:3 6.62549
*END

*D_NET *12 0.979603

*CONN
*P *261 O *C 3.0720 14.9330
*I *360:X O *D SAEDHVT14_AO221_0P5 *C 4.7870 9.2140

*CAP
1 *261 0.278351
2 *360:X 0.203061
3 *12:3 0.498191

*RES
1 *261 *12:3 7.73154
2 *360:X *12:2 0.001
3 *360:X *12:3 12.8902
*END

*D_NET *13 0.839086

*CONN
*P *262 O *C 2.0360 14.9860
*I *353:X O *D SAEDHVT14_OAI21_0P5 *C 4.0540 9.2115

*CAP
1 *262 0.595336
2 *13:2 0.0242104
3 *13:3 0.219539
4 *13:4 0.0

*RES
1 *262 *13:3 18.9074
2 *353:X *13:2 0.001
3 *13:2 *13:3 2.77778
4 *13:2 *13:4 0.001
*END

*D_NET *14 0.686624

*CONN
*P *263 O *C 1.0000 14.9330
*I *365:X O *D SAEDHVT14_NR4_0P75 *C 1.9990 8.6135

*CAP
1 *263 0.199277
2 *365:X 0.0246468
3 *14:2 0.462701

*RES
1 *263 *14:2 14.8775
2 *365:X *14:2 2.77778
*END

*D_NET *15 0.54054

*CONN
*P *264 I *C 14.7640 0.2670
*I *295:D I *C 11.7300 3.1000

*CAP
1 *264 0.185874
2 *295:D 0.0128601
3 *15:2 0.341807

*RES
1 *264 *15:2 15.3814
2 *295:D *15:2 0.352941
*END

*D_NET *16 0.792361

*CONN
*P *265 I *C 14.0980 0.2670
*I *294:D I *C 11.6180 4.2925

*CAP
1 *265 0.182767
2 *294:D 0.0141008
3 *16:2 0.012735
4 *16:3 0.582758

*RES
1 *265 *16:3 12.0586
2 *294:D *16:2 0.001
3 *294:D *16:3 1.38889
*END

*D_NET *17 0.664201

*CONN
*P *266 I *C 13.4320 0.2670
*I *293:D I *C 11.7300 5.5000

*CAP
1 *266 0.038234
2 *293:D 0.182387
3 *17:2 0.443579

*RES
1 *266 *17:2 5.785
2 *293:D *17:2 9.80817
*END

*D_NET *18 0.2634

*CONN
*P *267 I *C 12.7660 0.2670
*I *292:D I *C 11.6080 1.9000

*CAP
1 *267 0.0967753
2 *292:D 0.0834992
3 *18:2 0.0831257

*RES
1 *267 *18:2 6.15788
2 *292:D *18:2 2.64706
*END

*D_NET *19 0.631052

*CONN
*P *268 I *C 12.1000 0.2670
*I *291:D I *C 10.1265 3.6830

*CAP
1 *268 0.332906
2 *291:D 0.0351093
3 *19:2 0.233435
4 *19:3 0.0296019

*RES
1 *268 *19:2 12.0656
2 *291:D *19:2 2.65714
3 *291:D *19:3 0.001
4 *19:2 *19:3 4.28077
*END

*D_NET *20 0.457592

*CONN
*P *269 I *C 11.4340 0.2670
*I *290:D I *C 10.5935 2.4830

*CAP
1 *269 0.153897
2 *290:D 0.0239846
3 *20:2 0.0368555
4 *20:3 0.242855

*RES
1 *269 *20:3 7.12023
2 *290:D *20:2 0.001
3 *20:2 *20:3 1.14971
*END

*D_NET *21 0.337605

*CONN
*P *270 I *C 10.7680 0.2720
*I *289:D I *C 9.9975 1.8830

*CAP
1 *270 0.152566
2 *289:D 0.0610766
3 *21:2 0.0776405
4 *21:3 0.046322

*RES
1 *270 *21:3 3.89199
2 *289:D *21:2 0.001
3 *21:2 *21:3 4.63066
*END

*D_NET *22 0.433244

*CONN
*P *271 I *C 10.1020 0.2670
*I *288:D I *C 7.6465 1.9000

*CAP
1 *271 0.319394
2 *288:D 0.0434988
3 *22:2 0.0703507

*RES
1 *271 *22:2 10.8328
2 *288:D *22:2 1.34118
*END

*D_NET *23 0.650357

*CONN
*P *272 I *C 9.4360 0.2670
*I *399:D I *C 7.9445 4.3000

*CAP
1 *272 0.235038
2 *399:D 0.0511819
3 *23:2 0.364137

*RES
1 *272 *23:2 12.0618
2 *399:D *23:2 1.0
*END

*D_NET *24 0.401752

*CONN
*P *273 I *C 8.7700 0.2670
*I *398:D I *C 8.6715 2.4830

*CAP
1 *273 0.0557515
2 *398:D 0.0448766
3 *24:2 0.0405716
4 *24:3 0.260553

*RES
1 *273 *24:3 3.45408
2 *398:D *24:2 0.001
3 *24:2 *24:3 2.75359
*END

*D_NET *25 0.537098

*CONN
*P *274 I *C 8.1040 0.2670
*I *397:D I *C 8.6365 3.0830

*CAP
1 *274 0.137189
2 *25:3 0.0191774
3 *25:4 0.380731

*RES
1 *274 *25:4 6.38938
2 *397:D *25:3 0.001
3 *25:2 *25:3 0.001
4 *25:3 *25:4 1.38889
*END

*D_NET *26 0.631537

*CONN
*P *275 I *C 7.4380 0.2670
*I *396:D I *C 6.9450 3.1000

*CAP
1 *275 0.181793
2 *396:D 0.143848
3 *26:2 0.305897

*RES
1 *275 *26:2 4.73737
2 *396:D *26:2 4.30065
*END

*D_NET *27 0.475531

*CONN
*P *276 I *C 6.7720 0.2670
*I *395:D I *C 5.8460 1.9000

*CAP
1 *276 0.200711
2 *395:D 0.0372876
3 *27:2 0.237532

*RES
1 *276 *27:2 6.19389
2 *395:D *27:2 0.529412
*END

*D_NET *28 0.470018

*CONN
*P *277 I *C 6.1060 0.2670
*I *394:D I *C 5.2595 3.0830

*CAP
1 *277 0.171539
2 *394:D 0.00392222
3 *28:2 0.294557
4 *28:3 0.0

*RES
1 *277 *28:2 8.60552
2 *394:D *28:2 0.001
3 *28:2 *28:3 0.001
*END

*D_NET *29 0.305466

*CONN
*P *278 I *C 5.4400 0.2670
*I *393:D I *C 4.1090 1.9000

*CAP
1 *278 0.110685
2 *393:D 0.0717717
3 *29:2 0.123009

*RES
1 *278 *29:2 7.03964
2 *393:D *29:2 1.99412
*END

*D_NET *30 0.530951

*CONN
*P *279 I *C 4.7440 0.2585
*I *392:D I *C 1.9350 2.5000

*CAP
1 *279 0.509903
2 *30:2 0.021048

*RES
1 *279 *30:2 0.001
2 *392:D *30:2 0.01
*END

*D_NET *31 0.494043

*CONN
*P *280 I *C 4.1080 0.2670
*I *490:D I *C 3.2065 3.1000

*CAP
1 *280 0.0425512
2 *490:D 0.0167461
3 *31:2 0.434745

*RES
1 *280 *31:2 4.87389
2 *490:D *31:2 4.24183
*END

*D_NET *32 0.579145

*CONN
*P *281 I *C 3.4420 0.2670
*I *489:D I *C 2.3765 3.6830

*CAP
1 *281 0.221906
2 *489:D 0.00954281
3 *32:2 0.0304651
4 *32:3 0.317231

*RES
1 *281 *32:3 9.98082
2 *489:D *32:2 0.001
3 *32:2 *32:3 0.580458
*END

*D_NET *33 3.46639

*CONN
*P *282 I *C 2.7760 0.2670
*I *465:S I *C 10.8580 7.4225
*I *466:S I *C 10.0610 6.1715
*I *467:S I *C 7.0135 6.7712
*I *468:S I *C 10.8580 8.4000
*I *469:S I *C 6.1390 6.1715
*I *470:S I *C 12.0590 7.8820
*I *471:S I *C 5.1600 6.1800
*I *472:S I *C 2.8090 6.0975

*CAP
1 *282 0.50141
2 *465:S 0.0258778
3 *466:S 0.0347395
4 *467:S 0.0222375
5 *469:S 0.0428988
6 *470:S 0.0982874
7 *472:S 0.0359217
8 *33:9 0.0457697
9 *33:10 0.00033558
10 *33:11 0.0239399
11 *33:12 0.957542
12 *33:13 0.300447
13 *33:14 0.17521
14 *33:15 0.0655086
15 *33:16 0.521845
16 *33:17 0.440971
17 *33:18 0.173449
18 *33:20 0.0

*RES
1 *282 *33:12 12.3342
2 *465:S *33:10 0.001
3 *466:S *33:17 4.08366
4 *467:S *33:16 3.18807
5 *467:S *33:19 0.0864754
6 *468:S *33:11 0.001
7 *469:S *33:15 4.60196
8 *470:S *33:18 9.57614
9 *471:S *33:9 0.001
10 *472:S *33:12 2.99542
11 *33:9 *33:14 4.60196
12 *33:10 *33:13 2.77778
13 *33:10 *33:20 0.001
14 *33:11 *33:18 4.7366
15 *33:12 *33:14 8.27124
16 *33:13 *33:17 7.46601
17 *33:13 *33:18 0.870588
18 *33:14 *33:15 2.82353
19 *33:15 *33:16 6.13006
20 *33:16 *33:17 11.6013
*END

*D_NET *34 3.79567

*CONN
*P *283 I *C 2.1100 0.2670
*I *473:S I *C 6.2130 12.1655
*I *474:S I *C 10.4390 12.7575
*I *475:S I *C 11.2280 12.8235
*I *476:S I *C 7.0135 11.3675
*I *477:S I *C 13.0210 10.8335
*I *478:S I *C 11.6890 10.9815
*I *479:S I *C 5.1030 12.6920
*I *480:S I *C 2.8660 12.8400

*CAP
1 *283 0.688496
2 *473:S 0.046973
3 *474:S 0.0268707
4 *475:S 0.0253296
5 *477:S 0.100615
6 *478:S 0.0316172
7 *479:S 0.0288272
8 *480:S 0.0312022
9 *34:9 0.0172333
10 *34:10 0.104709
11 *34:12 0.209896
12 *34:13 0.190373
13 *34:14 0.187342
14 *34:15 0.995816
15 *34:16 0.139645
16 *34:17 0.346022
17 *34:18 0.624704
18 *34:19 0.0

*RES
1 *283 *34:15 26.1549
2 *473:S *34:14 4.38431
3 *474:S *34:12 2.77778
4 *475:S *34:11 0.001
5 *476:S *34:10 0.115984
6 *477:S *34:17 9.8732
7 *478:S *34:17 2.77778
8 *479:S *34:16 3.0219
9 *480:S *34:9 0.001
10 *480:S *34:15 2.98425
11 *34:10 *34:18 6.58578
12 *34:11 *34:13 2.99542
13 *34:11 *34:19 0.001
14 *34:12 *34:13 2.11765
15 *34:12 *34:18 13.7468
16 *34:13 *34:17 6.45882
17 *34:14 *34:16 5.87124
18 *34:14 *34:18 2.47059
19 *34:15 *34:16 9.74248
*END

*D_NET *35 1.09808

*CONN
*P *284 I *C 1.4140 0.2485
*I *402:A I *C 6.8800 4.2560

*CAP
1 *284 0.00284152
2 *402:A 0.464276
3 *35:3 0.0406849
4 *35:4 0.0281717
5 *35:5 0.562106
6 *35:8 0.0

*RES
1 *284 *35:4 0.001
2 *402:A *35:3 0.001
3 *402:A *35:5 15.6951
4 *402:A *35:6 0.001
5 *35:2 *35:3 0.001
6 *35:4 *35:5 0.347222
7 *35:4 *35:7 0.001
8 *35:4 *35:8 0.001
*END

*D_NET *36 0.480087

*CONN
*P *285 I *C 0.7780 0.2670
*I *286:A I *C 1.9990 1.9535
*I *287:A I *C 2.5670 3.0720

*CAP
1 *285 0.111738
2 *286:A 0.0246826
3 *287:A 0.107513
4 *36:4 0.236153

*RES
1 *285 *36:4 7.52631
2 *286:A *36:4 3.25719
3 *287:A *36:3 0.001
4 *287:A *36:4 8.2866
*END

*D_NET *40 0.362976

*CONN
*I *391:X O *D SAEDHVT14_MUX2_U_0P5 *C 3.3400 12.6920
*I *480:D0 I *C 2.6780 12.6180

*CAP
1 *391:X 0.0624514
2 *480:D0 0.0423534
3 *40:2 0.016355
4 *40:3 0.0295957
5 *40:4 0.212221
6 *40:6 0.0

*RES
1 *391:X *40:2 0.001
2 *391:X *40:4 7.53791
3 *391:X *40:5 0.001
4 *480:D0 *40:4 2.77778
5 *480:D0 *40:6 0.001
6 *40:2 *40:3 0.001
*END

*D_NET *41 0.384296

*CONN
*I *390:X O *D SAEDHVT14_MUX2_U_0P5 *C 3.4630 12.1740
*I *479:D0 I *C 4.8980 12.6180

*CAP
1 *390:X 0.0230951
2 *479:D0 0.129594
3 *41:3 0.231608
4 *41:4 0.0

*RES
1 *390:X *41:2 0.001
2 *390:X *41:3 2.77778
3 *479:D0 *41:3 11.0967
4 *479:D0 *41:4 0.001
*END

*D_NET *42 0.532771

*CONN
*I *384:X O *D SAEDHVT14_MUX2_U_0P5 *C 5.3200 11.5820
*I *473:D0 I *C 5.9800 12.1740

*CAP
1 *473:D0 0.135613
2 *42:2 0.0428136
3 *42:3 0.0454693
4 *42:7 0.308875
5 *42:8 0.0

*RES
1 *384:X *42:2 0.001
2 *384:X *42:6 0.001
3 *384:X *42:7 2.77778
4 *473:D0 *42:3 0.001
5 *473:D0 *42:7 9.06144
6 *473:D0 *42:8 0.001
7 *42:2 *42:4 0.001
8 *42:3 *42:5 0.001
*END

*D_NET *43 0.183182

*CONN
*I *387:X O *D SAEDHVT14_MUX2_U_0P5 *C 6.2800 11.4340
*I *476:D0 I *C 6.8200 11.4340

*CAP
1 *476:D0 5.47974e-05
2 *43:2 0.0384009
3 *43:3 0.0148396
4 *43:5 0.0290212
5 *43:7 0.100866
6 *43:8 0.0

*RES
1 *387:X *43:2 0.001
2 *387:X *43:6 0.001
3 *387:X *43:7 2.77778
4 *476:D0 *43:3 0.001
5 *476:D0 *43:7 4.26601
6 *476:D0 *43:8 0.001
7 *43:2 *43:4 0.001
8 *43:3 *43:5 0.001
*END

*D_NET *44 0.398939

*CONN
*I *385:X O *D SAEDHVT14_MUX2_U_0P5 *C 11.2600 11.5820
*I *474:D0 I *C 10.6600 12.6180

*CAP
1 *474:D0 0.0632605
2 *44:4 0.0458222
3 *44:5 0.0502844
4 *44:8 0.239572

*RES
1 *385:X *44:5 0.001
2 *385:X *44:7 0.001
3 *385:X *44:8 2.77778
4 *474:D0 *44:4 0.001
5 *474:D0 *44:6 0.001
6 *474:D0 *44:8 7.01895
7 *44:2 *44:4 0.001
8 *44:3 *44:5 0.001
*END

*D_NET *45 0.460065

*CONN
*I *388:X O *D SAEDHVT14_MUX2_U_0P5 *C 11.0200 10.9900
*I *477:D0 I *C 12.8010 10.9755

*CAP
1 *477:D0 0.0985105
2 *45:3 0.0471315
3 *45:5 0.296272
4 *45:6 0.0181514

*RES
1 *388:X *45:3 0.001
2 *388:X *45:4 0.001
3 *388:X *45:5 2.77778
4 *477:D0 *45:5 11.285
5 *477:D0 *45:6 0.001
6 *45:2 *45:3 0.001
*END

*D_NET *46 0.221067

*CONN
*I *389:X O *D SAEDHVT14_MUX2_U_0P5 *C 11.1880 10.3980
*I *478:D0 I *C 11.4450 10.9900

*CAP
1 *389:X 0.041731
2 *478:D0 0.0700037
3 *46:2 0.0269809
4 *46:3 0.0823518
5 *46:4 0.0

*RES
1 *389:X *46:3 2.77778
2 *389:X *46:4 0.001
3 *478:D0 *46:2 0.001
4 *478:D0 *46:3 5.17484
*END

*D_NET *47 0.573293

*CONN
*I *386:X O *D SAEDHVT14_MUX2_U_0P5 *C 9.7625 11.9245
*I *475:D0 I *C 11.0200 12.6180

*CAP
1 *386:X 0.0168254
2 *475:D0 0.157742
3 *47:4 0.0480149
4 *47:6 0.350711
5 *47:8 0.0

*RES
1 *386:X *47:3 0.0686854
2 *386:X *47:8 0.001
3 *475:D0 *47:4 0.001
4 *475:D0 *47:6 11.1203
5 *475:D0 *47:7 0.001
6 *47:2 *47:4 0.001
7 *47:5 *47:8 0.001
8 *47:6 *47:8 2.77778
*END

*D_NET *48 3.35696

*CONN
*I *288:Q O *D SAEDHVT14_FDPRBQ_V2LP_0P5 *C 9.1770 2.0275
*I *324:A I *C 2.0730 6.6155
*I *373:A2 I *C 2.5670 12.1740
*I *374:A2 I *C 1.8550 12.6230
*I *456:A1 I *C 2.7395 4.9415
*I *458:A2 I *C 2.2210 5.9480
*I *494:A1 I *C 8.8085 4.8400
*I *496:SI I *C 3.8665 4.3600

*CAP
1 *288:Q 0.194576
2 *324:A 0.0363502
3 *373:A2 0.0958499
4 *374:A2 0.0193692
5 *456:A1 0.0151657
6 *458:A2 0.0249946
7 *494:A1 0.148807
8 *496:SI 0.0800619
9 *48:9 0.700746
10 *48:10 0.0213203
11 *48:11 0.226363
12 *48:12 0.0670961
13 *48:13 0.263481
14 *48:14 0.62262
15 *48:15 0.793898
16 *48:16 0.0462655

*RES
1 *288:Q *48:15 7.57801
2 *324:A *48:11 2.77778
3 *373:A2 *48:8 0.001
4 *373:A2 *48:9 7.84967
5 *374:A2 *48:9 10.9
6 *374:A2 *48:10 0.001
7 *456:A1 *48:16 0.245605
8 *458:A2 *48:12 2.77778
9 *494:A1 *48:15 4.13513
10 *496:SI *48:14 0.347059
11 *48:9 *48:10 1.534
12 *48:9 *48:11 17.3571
13 *48:11 *48:12 2.31176
14 *48:12 *48:13 5.15294
15 *48:13 *48:14 7.42395
16 *48:13 *48:16 3.64837
17 *48:14 *48:15 12.2476
*END

*D_NET *49 3.64439

*CONN
*I *289:Q O *D SAEDHVT14_FDPRBQ_V2LP_0P5 *C 11.4880 1.8140
*I *321:A I *C 3.1090 9.1315
*I *366:B I *C 2.9085 11.5000
*I *451:A1 I *C 5.0265 4.9415
*I *454:A2 I *C 4.3670 5.9480
*I *493:B2 I *C 7.8475 4.9430
*I *497:SI I *C 5.7915 3.6400

*CAP
1 *289:Q 0.276298
2 *321:A 0.0275025
3 *366:B 0.453261
4 *451:A1 0.0181535
5 *454:A2 0.0608013
6 *493:B2 0.0382518
7 *497:SI 0.0132952
8 *49:7 0.531546
9 *49:8 0.498045
10 *49:9 0.0337046
11 *49:10 0.481199
12 *49:11 0.302749
13 *49:12 0.722233
14 *49:14 0.0605764
15 *49:15 0.126772

*RES
1 *289:Q *49:12 19.7105
2 *289:Q *49:13 0.001
3 *321:A *49:7 2.77778
4 *366:B *49:7 11.2572
5 *451:A1 *49:14 0.106628
6 *454:A2 *49:10 5.03725
7 *493:B2 *49:9 0.001
8 *493:B2 *49:15 2.84737
9 *497:SI *49:11 1.38889
10 *49:7 *49:10 9.39198
11 *49:8 *49:10 6.63595
12 *49:8 *49:11 7.05458
13 *49:8 *49:14 2.77778
14 *49:9 *49:15 3.63
15 *49:11 *49:12 5.64706
16 *49:12 *49:15 4.11095
*END

*D_NET *50 4.58088

*CONN
*I *290:Q O *D SAEDHVT14_FDPRBQ_V2LP_0P5 *C 12.0800 2.3320
*I *329:A1 I *C 3.6400 6.0320
*I *334:A1 I *C 4.2210 6.7170
*I *339:A2 I *C 3.9230 7.1325
*I *367:B I *C 3.8115 10.9000
*I *431:A2 I *C 3.9060 5.6535
*I *444:A1 I *C 3.6335 5.4220
*I *496:D I *C 3.8255 4.2230
*I *498:SI I *C 11.5515 7.2400

*CAP
1 *290:Q 0.285425
2 *329:A1 0.000657689
3 *334:A1 0.0110164
4 *339:A2 0.0303863
5 *367:B 0.589738
6 *431:A2 0.0135803
7 *496:D 0.00290974
8 *498:SI 0.273887
9 *50:9 0.0266288
10 *50:11 0.039739
11 *50:13 0.0304343
12 *50:14 0.307962
13 *50:15 0.0912331
14 *50:16 0.695057
15 *50:17 0.135363
16 *50:19 0.0199868
17 *50:21 0.903053
18 *50:22 1.05432
19 *50:24 0.0147421
20 *50:26 0.0547654

*RES
1 *290:Q *50:22 9.48931
2 *290:Q *50:25 0.001
3 *329:A1 *50:9 0.001
4 *329:A1 *50:14 2.35948
5 *329:A1 *50:18 0.001
6 *334:A1 *50:24 0.001
7 *334:A1 *50:26 3.43366
8 *339:A2 *50:16 3.2219
9 *367:B *50:16 14.0997
10 *431:A2 *50:13 0.001
11 *444:A1 *50:11 0.001
12 *496:D *50:17 0.001
13 *498:SI *50:22 7.76859
14 *50:9 *50:12 0.001
15 *50:10 *50:13 0.001
16 *50:11 *50:19 2.77778
17 *50:13 *50:15 2.77778
18 *50:13 *50:20 0.001
19 *50:13 *50:23 0.001
20 *50:14 *50:15 0.857059
21 *50:14 *50:19 1.08824
22 *50:15 *50:26 3.04706
23 *50:16 *50:26 1.08824
24 *50:17 *50:21 3.96013
25 *50:19 *50:21 2.61176
26 *50:21 *50:22 17.384
*END

*D_NET *51 2.61314

*CONN
*I *291:Q O *D SAEDHVT14_FDPRBQ_V2LP_0P5 *C 11.7840 3.8120
*I *333:A I *C 6.2910 7.2815
*I *368:B I *C 6.0315 10.9000
*I *435:A1 I *C 6.2740 4.9220
*I *437:A2 I *C 6.3525 5.5877
*I *497:D I *C 5.9115 3.7600
*I *499:SI I *C 9.7515 5.5600

*CAP
1 *291:Q 0.195325
2 *333:A 0.043932
3 *368:B 0.447081
4 *437:A2 0.021547
5 *497:D 0.140257
6 *499:SI 0.0283106
7 *51:8 0.895759
8 *51:10 0.319294
9 *51:11 0.478666
10 *51:12 0.00590511
11 *51:15 0.0370665

*RES
1 *291:Q *51:8 12.6403
2 *291:Q *51:14 0.001
3 *333:A *51:11 3.86601
4 *368:B *51:11 12.2132
5 *435:A1 *51:12 0.001
6 *437:A2 *51:13 0.125847
7 *437:A2 *51:15 2.77778
8 *497:D *51:10 4.47647
9 *499:SI *51:8 1.85654
10 *51:7 *51:12 0.001
11 *51:8 *51:15 11.4477
12 *51:9 *51:12 0.001
13 *51:10 *51:12 2.77778
14 *51:10 *51:15 1.74118
15 *51:11 *51:15 4.13529
*END

*D_NET *52 2.81636

*CONN
*I *292:Q O *D SAEDHVT14_FDPRBQ_V2LP_0P5 *C 13.2435 2.0327
*I *323:B I *C 7.0155 7.3635
*I *328:A I *C 6.5200 7.2900
*I *369:B I *C 7.8915 10.9000
*I *460:A1 I *C 8.1980 6.7720
*I *462:A2 I *C 7.9845 7.1315
*I *498:D I *C 11.4315 7.3600
*I *500:SI I *C 11.4315 8.4400

*CAP
1 *323:B 0.0520408
2 *328:A 0.0149483
3 *369:B 0.228962
4 *460:A1 0.00848723
5 *498:D 0.110123
6 *52:10 0.0569705
7 *52:13 0.0262934
8 *52:14 0.376862
9 *52:16 0.131259
10 *52:19 0.593739
11 *52:20 0.171468
12 *52:21 0.116719
13 *52:22 0.213136
14 *52:23 0.671703
15 *52:25 0.0436522
16 *52:26 0.0

*RES
1 *292:Q *52:9 0.173706
2 *292:Q *52:26 0.001
3 *323:B *52:20 4.38431
4 *323:B *52:24 0.113077
5 *328:A *52:10 0.001
6 *328:A *52:15 0.001
7 *328:A *52:20 5.57843
8 *369:B *52:23 6.27353
9 *460:A1 *52:25 0.001
10 *462:A2 *52:13 0.001
11 *498:D *52:14 0.504412
12 *498:D *52:21 2.84118
13 *500:SI *52:21 0.335294
14 *52:8 *52:10 0.001
15 *52:11 *52:25 0.001
16 *52:12 *52:13 0.001
17 *52:13 *52:16 2.77778
18 *52:14 *52:19 27.7967
19 *52:16 *52:22 1.46111
20 *52:16 *52:25 4.34542
21 *52:17 *52:25 0.001
22 *52:18 *52:26 0.001
23 *52:19 *52:26 2.77778
24 *52:20 *52:22 2.70294
25 *52:21 *52:23 11.5271
26 *52:22 *52:23 2.76209
*END

*D_NET *53 2.7755

*CONN
*I *293:Q O *D SAEDHVT14_FDPRBQ_V2LP_0P5 *C 13.2470 5.6535
*I *320:A2 I *C 6.6420 7.7340
*I *326:A1 I *C 5.9950 7.8820
*I *370:B I *C 9.6440 9.0830
*I *439:A1 I *C 9.5640 7.9560
*I *441:A2 I *C 10.3610 8.0215
*I *499:D I *C 9.8715 5.4400
*I *501:SI I *C 10.9515 6.0400

*CAP
1 *293:Q 0.187428
2 *320:A2 0.0581162
3 *326:A1 0.112408
4 *370:B 0.202138
5 *439:A1 0.0189262
6 *441:A2 0.0588134
7 *499:D 0.0910795
8 *501:SI 0.0676672
9 *53:8 0.0202657
10 *53:9 0.379539
11 *53:10 0.50216
12 *53:11 0.00423188
13 *53:12 0.483874
14 *53:13 0.108567
15 *53:14 0.480289
16 *53:15 0.0

*RES
1 *293:Q *53:14 9.52993
2 *320:A2 *53:8 0.001
3 *320:A2 *53:12 4.28431
4 *326:A1 *53:12 6.61373
5 *370:B *53:11 3.11618
6 *439:A1 *53:11 2.99542
7 *439:A1 *53:15 0.001
8 *441:A2 *53:9 5.12549
9 *499:D *53:10 2.65572
10 *501:SI *53:14 2.08333
11 *53:9 *53:11 2.43075
12 *53:9 *53:13 1.37722
13 *53:10 *53:13 4.555
14 *53:10 *53:14 2.95722
15 *53:12 *53:13 5.7625
*END

*D_NET *54 2.94648

*CONN
*I *294:Q O *D SAEDHVT14_FDPRBQ_V2LP_0P5 *C 13.1730 4.4695
*I *336:A1 I *C 7.6230 7.8080
*I *341:A2 I *C 7.2530 7.9560
*I *371:B I *C 12.6315 9.7000
*I *447:A1 I *C 8.7160 7.9560
*I *449:A2 I *C 9.4645 7.1315
*I *494:B2 I *C 9.2285 4.9600
*I *500:D I *C 11.4315 8.5600

*CAP
1 *294:Q 0.0639422
2 *336:A1 0.0547628
3 *341:A2 0.124637
4 *371:B 0.0944377
5 *447:A1 0.00684496
6 *494:B2 0.0427319
7 *500:D 0.0742631
8 *54:8 0.00820555
9 *54:10 0.05052
10 *54:11 0.211022
11 *54:12 0.159045
12 *54:13 0.629308
13 *54:16 0.329272
14 *54:17 0.227494
15 *54:18 0.516556
16 *54:19 0.353438
17 *54:21 0.0

*RES
1 *294:Q *54:13 12.8137
2 *336:A1 *54:16 5.06373
3 *341:A2 *54:16 5.65784
4 *371:B *54:19 9.04248
5 *447:A1 *54:8 0.001
6 *449:A2 *54:10 0.001
7 *494:B2 *54:11 0.001
8 *500:D *54:19 0.617647
9 *54:8 *54:14 0.001
10 *54:8 *54:17 2.99542
11 *54:8 *54:20 0.001
12 *54:9 *54:10 0.001
13 *54:10 *54:12 3.74248
14 *54:10 *54:15 0.001
15 *54:10 *54:21 0.001
16 *54:11 *54:12 6.33529
17 *54:11 *54:13 5.98301
18 *54:12 *54:18 2.47712
19 *54:16 *54:17 4.74183
20 *54:17 *54:18 4.32418
21 *54:18 *54:19 14.6549
*END

*D_NET *55 2.95738

*CONN
*I *295:Q O *D SAEDHVT14_FDPRBQ_V2LP_0P5 *C 13.2470 3.2115
*I *362:A I *C 8.1410 9.6495
*I *372:B I *C 8.8515 11.5000
*I *433:A2 I *C 8.8810 6.0320
*I *464:A1 I *C 8.3460 6.1060
*I *493:A1 I *C 8.3115 4.8400
*I *501:D I *C 10.8915 6.1600

*CAP
1 *295:Q 0.303219
2 *362:A 0.0357965
3 *372:B 0.408565
4 *433:A2 0.0429739
5 *464:A1 0.0061061
6 *493:A1 0.169481
7 *501:D 0.0185679
8 *55:7 0.00567494
9 *55:8 0.810047
10 *55:10 0.0013398
11 *55:11 0.223593
12 *55:12 0.348555
13 *55:13 0.583457
14 *55:14 0.0

*RES
1 *295:Q *55:13 20.6784
2 *362:A *55:8 3.75837
3 *372:B *55:8 9.89967
4 *433:A2 *55:12 4.4049
5 *464:A1 *55:7 0.001
6 *493:A1 *55:11 3.50588
7 *501:D *55:13 1.66536
8 *55:7 *55:9 0.001
9 *55:7 *55:10 2.77778
10 *55:7 *55:14 0.001
11 *55:8 *55:10 9.79412
12 *55:10 *55:11 0.217647
13 *55:11 *55:12 2.62418
14 *55:12 *55:13 6.81676
*END

*D_NET *56 0.614913

*CONN
*I *319:X O *D SAEDHVT14_INV_0P5 *C 8.2660 7.8080
*I *320:A1 I *C 6.5870 7.7970
*I *326:A2 I *C 6.1430 7.8165

*CAP
1 *319:X 0.11168
2 *320:A1 0.0383786
3 *326:A2 0.0536799
4 *56:4 0.411175

*RES
1 *319:X *56:3 0.001
2 *319:X *56:4 9.70696
3 *320:A1 *56:4 4.60196
4 *326:A2 *56:4 5.66078
*END

*D_NET *57 0.246569

*CONN
*I *364:X O *D SAEDHVT14_ND2_CDC_0P5 *C 2.4260 8.0980